clock {
	timezone "PST+8PDT";
	starttime '2001-08-01 12:00:00 PST';
	stoptime '2001-08-01 12:00:20 PST';
}

#set suppress_repeat_messages=1
#set relax_naming_rules=1;
#set profiler=1
#set pauseatexit=1
#define rotor_convergence=0.00000000000001
#set double_format=%+.12lg
#set complex_format=%+.12lg%+.12lg%c

//Deltamode declarations - global values
#set deltamode_timestep=100000000		//100 ms
#set deltamode_maximumtime=60000000000	//1 minute
#set deltamode_iteration_limit=10		//Iteration limit

module tape;
module reliability {
	enable_subsecond_models true;
	maximum_event_length 1800000;	//Maximum length of events in seconds (manual events are excluded from this limit)
	report_event_log true;
}

module powerflow {
	enable_subsecond_models true;
	deltamode_timestep 2 ms;	//10 ms
	solver_method NR;
	all_powerflow_delta true;
	//enable_inrush TRUE;
};

module generators {
	enable_subsecond_models true;
	deltamode_timestep 2 ms;
}


#include "IEEE-123_Diesels_fixed.glm";
#include "IEEE-123_Inverters_fixed.glm";

//Fault check option
//object fault_check {
//	name base_fault_check_object;
//	check_mode ONCHANGE;
//	strictly_radial false;
//	eventgen_object testgendev;
//	grid_association true;	//Flag to ensure non-monolithic islands
	// output_filename test_connect.txt;
	// full_output_file true;
//}

//Manual object - needed to get fault_check to behave properly -- arbitrary item added

// Open SW 18-135 (form island 1)
//object eventgen {
//	flags DELTAMODE;
//	name testgendev;
//	fault_type "SW-ABC";     //Type of fault for the object to induce
//	manual_outages "microgrid_switch1,2001-08-01 12:00:3.315 PST,2001-08-01 13:00:00.0 PST";
//}   // First time is when the switch will open, the second time is when it will close

// Open Switch 97-197 (isolate island 2)
//object eventgen {
//	flags DELTAMODE;
//	name testgendev2;
//	fault_type "SW-ABC";     //Type of fault for the object to induce
//	manual_outages "microgrid_switch2,2001-08-01 12:01:15.315 PST,2001-08-01 12:00:15.001 PST";
//}   // First time is when the switch will open, the second time is when it will close


 //Open Switch 60-160 (isolate island 3)
//object eventgen {
//	flags DELTAMODE;
//	name testgendev3;
//	fault_type "SW-ABC";     //Type of fault for the object to induce
//	manual_outages "microgrid_switch3,2001-08-01 12:00:3.315 PST,2001-08-01 13:00:00.0 PST";
//}   // First time is when the switch will open, the second time is when it will close

 //Open Switch 151, disconnect diesel at 1511
//object eventgen {
//	flags DELTAMODE;
//	name testgendev4;
//	fault_type "SW-ABC";     //Type of fault for the object to induce
//	manual_outages "Diesel_Switch_1,2001-08-01 12:00:05.315 PST,2001-08-01 13:00:00.0 PST";
//}   // First time is when the switch will open, the second time is when it will close

 //Open 1491-149
//object eventgen {
//	flags DELTAMODE;
//	name testgendev5;
//	fault_type "SW-ABC";     //Type of fault for the object to induce
//	manual_outages "1491-149,2001-08-01 12:00:03.315 PST,2001-08-01 13:00:00.0 PST";
//}   // First time is when the switch will open, the second time is when it will close

// // Close Switch 151-300 (energize the third island)
// object eventgen {
	// flags DELTAMODE;
	// name testgendev4;
	// fault_type "SW-ABC";     //Type of fault for the object to induce
	// manual_outages "microgrid_switch4,2001-08-01 12:00:20.002 PST,2001-08-01 12:00:16.005 PST";
// }   // First time is when the switch will open, the second time is when it will close


///////////////////////////////////////////////////////////////////////////
// Start of individual objects/////////////////////////////////////////////
///////////////////////////////////////////////////////////////////////////

//Phase Conductor for 1 thru 8: 336,400 26/7 ACSR
object overhead_lineconductor:10001 {
	geometric_mean_radius 0.0244  ;
	resistance 0.30600;
}

//Phase Conductor for 9 thru 11: 1/0 ACSR
object overhead_lineconductor:10009 {
	geometric_mean_radius 0.004460  ;
	resistance 1.12000;
}	

//Phase Conductor for neutral: 4/0 6/1 ACSR
object overhead_lineconductor:10002 {
	geometric_mean_radius 0.008140  ;
	resistance 0.59200;
}

// Phase Conductor for 12: 1/0 AA,TS
object underground_line_conductor:10003 { 
	 outer_diameter 1.060000;
	 conductor_gmr 0.011100;
	 conductor_diameter 0.368000;
	 conductor_resistance 0.970000;
	 neutral_gmr 0.011100;
	 neutral_resistance 0.970000;
	 neutral_diameter 0.0640837;
	 neutral_strands 6.000000;
	 shield_gmr 0.000000;
	 shield_resistance 0.000000;
}

// Overhead line configurations
// ABCN
object line_spacing:5001 {
	distance_AB 2.5;
	distance_AC 7.0;
	distance_BC 4.5;
	distance_AN 5.656854;
	distance_BN 4.272002;
	distance_CN 5.0;
}

// CABN
object line_spacing:5002 {
	distance_AB 4.5;
	distance_AC 2.5;
	distance_BC 7.0;
	distance_AN 5.0;
	distance_BN 4.272002;
	distance_CN 5.656854;
}

// BCAN
object line_spacing:5003 {
	distance_AB 7.0;
	distance_AC 4.5;
	distance_BC 2.5;
	distance_AN 5.0;
	distance_BN 5.656854;
	distance_CN 4.272002;
}

// CBAN
object line_spacing:5004 {
	distance_AB 4.5;
	distance_AC 7.0;
	distance_BC 2.5;
	distance_AN 5.0;
	distance_BN 4.272002;
	distance_CN 5.656854;
}

// BACN
object line_spacing:5005 {
	distance_AB 2.5;
	distance_AC 4.5;
	distance_BC 7.0;
	distance_BN 5.656854;
	distance_AN 4.272002;
	distance_CN 5.0;
}

// ACBN
object line_spacing:5006 {
	distance_AB 7.0;
	distance_AC 2.5;
	distance_BC 4.5;
	distance_AN 5.656854;
	distance_CN 4.272002;
	distance_BN 5.0;
}

//ACN
object line_spacing:5007 {
	distance_AB 0.0;
	distance_AC 7.0;
	distance_BC 0.0;
	distance_AN 5.656854;
	distance_BN 0.0;
	distance_CN 5.0;
}

//ABN
object line_spacing:5008 {
	distance_AB 7.0;
	distance_AC 0.0;
	distance_BC 0.0;
	distance_AN 5.656854;
	distance_BN 5.0;
	distance_CN 0.0;
}

//AN
object line_spacing:5009 {
	distance_AB 0.0;
	distance_AC 0.0;
	distance_BC 0.0;
	distance_AN 5.0;
	distance_BN 0.0;
	distance_CN 0.0;
}

//BN
object line_spacing:50010 {
	distance_AB 0.0;
	distance_AC 0.0;
	distance_BC 0.0;
	distance_AN 0.0;
	distance_BN 5.0;
	distance_CN 0.0;
}

//CN
object line_spacing:50011 {
	distance_AB 0.0;
	distance_AC 0.0;
	distance_BC 0.0;
	distance_AN 0.0;
	distance_BN 0.0;
	distance_CN 5.0;
}

//ABC
object line_spacing:50012 {
	distance_AB 0.5;
	distance_AC 1.0;
	distance_BC 0.5;
	distance_AN 0.0;
	distance_BN 0.0;
	distance_CN 0.0;
}


object line_configuration:1001 {
	conductor_A overhead_line_conductor:10001;
	conductor_B overhead_line_conductor:10001;
	conductor_C overhead_line_conductor:10001;
	conductor_N overhead_line_conductor:10002;
	spacing line_spacing:5001;
}

object line_configuration:1002 {
	conductor_A overhead_line_conductor:10001;
	conductor_B overhead_line_conductor:10001;
	conductor_C overhead_line_conductor:10001;
	conductor_N overhead_line_conductor:10002;
	spacing line_spacing:5002;
}

object line_configuration:1003 {
	conductor_A overhead_line_conductor:10001;
	conductor_B overhead_line_conductor:10001;
	conductor_C overhead_line_conductor:10001;
	conductor_N overhead_line_conductor:10002;
	spacing line_spacing:5003;
}

object line_configuration:1004 {
	conductor_A overhead_line_conductor:10001;
	conductor_B overhead_line_conductor:10001;
	conductor_C overhead_line_conductor:10001;
	conductor_N overhead_line_conductor:10002;
	spacing line_spacing:5004;
}

object line_configuration:1005 {
	conductor_A overhead_line_conductor:10001;
	conductor_B overhead_line_conductor:10001;
	conductor_C overhead_line_conductor:10001;
	conductor_N overhead_line_conductor:10002;
	spacing line_spacing:5005;
}

object line_configuration:1006 {
	conductor_A overhead_line_conductor:10001;
	conductor_B overhead_line_conductor:10001;
	conductor_C overhead_line_conductor:10001;
	conductor_N overhead_line_conductor:10002;
	spacing line_spacing:5006;
}

object line_configuration:1007 {
	conductor_A overhead_line_conductor:10001;
	conductor_C overhead_line_conductor:10001;
	conductor_N overhead_line_conductor:10002;
	spacing line_spacing:5007;
}

object line_configuration:1008 {
	conductor_A overhead_line_conductor:10001;
	conductor_B overhead_line_conductor:10001;
	conductor_N overhead_line_conductor:10002;
	spacing line_spacing:5008;
}

object line_configuration:1009 {
	conductor_A overhead_line_conductor:10009;
	conductor_N overhead_line_conductor:10009;
	spacing line_spacing:5009;
}

object line_configuration:10010 {
	conductor_B overhead_line_conductor:10009;
	conductor_N overhead_line_conductor:10009;
	spacing line_spacing:50010;
}

object line_configuration:10011 {
	conductor_C overhead_line_conductor:10009;
	conductor_N overhead_line_conductor:10009;
	spacing line_spacing:50011;
}

object line_configuration:10012 {
	 conductor_A underground_line_conductor:10003;
	 conductor_B underground_line_conductor:10003;
	 conductor_C underground_line_conductor:10003;
	 spacing line_spacing:50012;
}



//Define line objects 
object overhead_line  {
     phases "BN";
     name 1-2;
     from load_1;
     to load_2;
     length 175;
     configuration line_configuration:10010;
}

object overhead_line  {
     phases "CN";
     name 1-3;
     from load_1;
     to node_3;
     length 250;
     configuration line_configuration:10011;
}
 
object overhead_line  {
     phases "ABCN";
     name 1-7;
     from load_1;
     to load_7;
     length 300;
     configuration line_configuration:1001;
}
 
object overhead_line  {
     phases "CN";
     name 3-4;
     from node_3;
     to load_4;
     length 200;
     configuration line_configuration:10011;
}
 
object overhead_line  {
     phases "CN";
     name 3-5;
     from node_3;
     to load_5;
     length 325;
     configuration line_configuration:10011;
}
 
object overhead_line  {
     phases "CN";
     name 5-6;
     from load_5;
     to load_6;
     length 250;
     configuration line_configuration:10011;
}
 
object overhead_line  {
     phases "ABCN";
     name 7-8;
     from load_7;
     to node_8;
     length 200;
     configuration line_configuration:1001;
}
 
object overhead_line  {
     phases "BN";
     name 8-12;
     from node_8;
     to load_12;
     length 225;
     configuration line_configuration:10010;
}
 
object overhead_line  {
     phases "AN";
     name 8-9;
     from node_8;
     to load_9;
     length 225;
     configuration line_configuration:1009;
}
 
object overhead_line  {
     phases "ABCN";
     name 8-13;
     from node_8;
     to meter_13;
     length 300;
     configuration line_configuration:1001;
}
 
object overhead_line  {
     phases "AN";
     name 1401-14;
     from node_1401;
     to node_14;
     length 425;
     configuration line_configuration:1009;
}
 
object overhead_line  {
     phases "CN";
     name 13-34;
     from meter_13;
     to load_34;
     length 150;
     configuration line_configuration:10011;
}
 
object overhead_line  {
     phases "ABCN";
     name 13-18;
     from meter_13;
     to node_18;
     length 825;
     configuration line_configuration:1002;
}
 
object overhead_line  {
     phases "AN";
     name 14-11;
     from node_14;
     to load_11;
     length 250;
     configuration line_configuration:1009;
}
 
object overhead_line  {
     phases "AN";
     name 14-10;
     from node_14;
     to load_10;
     length 250;
     configuration line_configuration:1009;
}
 
object overhead_line  {
     phases "CN";
     name 15-16;
     from node_15;
     to load_16;
     length 375;
     configuration line_configuration:10011;
}
 
object overhead_line  {
     phases "CN";
     name 15-17;
     from node_15;
     to load_17;
     length 350;
     configuration line_configuration:10011;
}
 
object overhead_line  {
     phases "AN";
     name 18-19;
     from node_18;
     to load_19;
     length 250;
     configuration line_configuration:1009;
}
 
object overhead_line  {
     phases "ABCN";
     name 18-21;
     from node_18;
     to node_21;
     length 300;
     configuration line_configuration:1002;
}
 
object overhead_line  {
     phases "AN";
     name 19-20;
     from load_19;
     to load_20;
     length 325;
     configuration line_configuration:1009;
}
 
object overhead_line  {
     phases "BN";
     name 21-22;
     from node_21;
     to load_22;
     length 525;
     configuration line_configuration:10010;
}
 
object overhead_line  {
     phases "ABCN";
     name 21-23;
     from node_21;
     to node_23;
     length 250;
     configuration line_configuration:1002;
}
 
object overhead_line  {
     phases "CN";
     name 23-24;
     from node_23;
     to load_24;
     length 550;
     configuration line_configuration:10011;
}
 
object overhead_line  {
     phases "ABCN";
     name 23-25;
     from node_23;
     to node_25;
     length 275;
     configuration line_configuration:1002;
}
 
object overhead_line  {
     phases "ACN";
     name 2601-26;
     from node_2601;
     to node_26;
     length 350;
     configuration line_configuration:1007;
}
 
object overhead_line  {
     phases "ABCN";
     name 25-28;
     from node_25;
     to load_28;
     length 200;
     configuration line_configuration:1002;
}
 
object overhead_line  {
     phases "ACN";
     name 26-27;
     from node_26;
     to node_27;
     length 275;
     configuration line_configuration:1007;
}
 
object overhead_line  {
     phases "CN";
     name 26-31;
     from node_26;
     to load_31;
     length 225;
     configuration line_configuration:10011;
}
 
object overhead_line  {
     phases "AN";
     name 27-33;
     from node_27;
     to load_33;
     length 500;
     configuration line_configuration:1009;
}
 
object overhead_line  {
     phases "ABCN";
     name 28-29;
     from load_28;
     to load_29;
     length 300;
     configuration line_configuration:1002;
}
 
object overhead_line  {
     phases "ABCN";
     name 29-30;
     from load_29;
     to load_30;
     length 350;
     configuration line_configuration:1002;
}
 
object overhead_line  {
     phases "ABCN";
     name 30-250;
     from load_30;
     to node_250;
     length 200;
     configuration line_configuration:1002;
}
 
object overhead_line  {
     phases "CN";
     name 31-32;
     from load_31;
     to load_32;
     length 300;
     configuration line_configuration:10011;
}
 
object overhead_line  {
     phases "CN";
     name 34-15;
     from load_34;
     to node_15;
     length 100;
     configuration line_configuration:10011;
}
 
object overhead_line  {
     phases "ABN";
     name 35-36;
     from load_35;
     to node_36;
     length 650;
     configuration line_configuration:1008;
}
 
object overhead_line  {
     phases "ABCN";
     name 35-40;
     from load_35;
     to node_40;
     length 250;
     configuration line_configuration:1001;
}
 
object overhead_line  {
     phases "AN";
     name 36-37;
     from node_36;
     to load_37;
     length 300;
     configuration line_configuration:1009;
}
 
object overhead_line  {
     phases "BN";
     name 36-38;
     from node_36;
     to load_38;
     length 250;
     configuration line_configuration:10010;
}
 
object overhead_line  {
     phases "BN";
     name 38-39;
     from load_38;
     to load_39;
     length 325;
     configuration line_configuration:10010;
}
 
object overhead_line  {
     phases "CN";
     name 40-41;
     from node_40;
     to load_41;
     length 325;
     configuration line_configuration:10011;
}
 
object overhead_line  {
     phases "ABCN";
     name 40-42;
     from node_40;
     to load_42;
     length 250;
     configuration line_configuration:1001;
}
 
object overhead_line  {
     phases "BN";
     name 42-43;
     from load_42;
     to load_43;
     length 500;
     configuration line_configuration:10010;
}
 
object overhead_line  {
     phases "ABCN";
     name 42-44;
     from load_42;
     to node_44;
     length 200;
     configuration line_configuration:1001;
}
 
object overhead_line  {
     phases "AN";
     name 44-45;
     from node_44;
     to load_45;
     length 200;
     configuration line_configuration:1009;
}
 
object overhead_line  {
     phases "ABCN";
     name 44-47;
     from node_44;
     to load_47;
     length 250;
     configuration line_configuration:1001;
}
 
object overhead_line  {
     phases "AN";
     name 45-46;
     from load_45;
     to load_46;
     length 300;
     configuration line_configuration:1009;
}
 
object overhead_line  {
     phases "ABCN";
     name 47-48;
     from load_47;
     to load_48;
     length 150;
     configuration line_configuration:1004;
}
 
object overhead_line  {
     phases "ABCN";
     name 47-49;
     from load_47;
     to load_49;
     length 250;
     configuration line_configuration:1004;
}
 
object overhead_line  {
     phases "ABCN";
     name 49-50;
     from load_49;
     to meter_50;
     length 250;
     configuration line_configuration:1004;
}
 
object overhead_line  {
     phases "ABCN";
     name 50-51;
     from meter_50;
     to load_51;
     length 250;
     configuration line_configuration:1004;
}

object overhead_line  {
     phases "ABCN";			//undefined line segment
     name 51-151;
     from load_51;
     to node_151;
     length 700;
     configuration line_configuration:1004;
}
 
object overhead_line  {
     phases "ABCN";
     name 52-53;
     from load_52;
     to load_53;
     length 200;
     configuration line_configuration:1001;
}
 
object overhead_line  {
     phases "ABCN";
     name 53-54;
     from load_53;
     to node_54;
     length 125;
     configuration line_configuration:1001;
}
 
object overhead_line  {
     phases "ABCN";
     name 54-55;
     from node_54;
     to load_55;
     length 275;
     configuration line_configuration:1001;
}
 
object overhead_line  {
     phases "ABCN";
     name 54-57;
     from node_54;
     to node_57;
     length 350;
     configuration line_configuration:1003;
}
 
object overhead_line  {
     phases "ABCN";
     name 55-56;
     from load_55;
     to load_56;
     length 275;
     configuration line_configuration:1001;
}
 
object overhead_line  {
     phases "BN";
     name 57-58;
     from node_57;
     to load_58;
     length 250;
     configuration line_configuration:10010;
}
 
object overhead_line  {
     phases "ABCN";
     name 57-60;
     from node_57;
     to load_60;
     length 750;
     configuration line_configuration:1003;
}
 
object overhead_line  {
     phases "BN";
     name 58-59;
     from load_58;
     to load_59;
     length 250;
     configuration line_configuration:10010;
}
 
object overhead_line  {
     phases "ABCN";
     name 60-61;
     from load_60;
     to node_61;
     length 550;
     configuration line_configuration:1005;
}
 
object underground_line  {
     phases "ABC";
     name 60-62;
     from load_60;
     to load_62;
     length 250;
     configuration line_configuration:10012;
}
 
object underground_line  {
     phases "ABC";
     name 62-63;
     from load_62;
     to load_63;
     length 175;
     configuration line_configuration:10012;
}
 
object underground_line  {
     phases "ABC";
     name 63-64;
     from load_63;
     to load_64;
     length 350;
     configuration line_configuration:10012;
}
 
object underground_line  {
     phases "ABC";
     name 64-65;
     from load_64;
     to load_65;
     length 425;
     configuration line_configuration:10012;
}
 
object underground_line  {
     phases "ABC";
     name 65-66;
     from load_65;
     to meter_66;
     length 325;
     configuration line_configuration:10012;
}
 
object overhead_line  {
     phases "AN";
     name 67-68;
     from node_67;
     to load_68;
     length 200;
     configuration line_configuration:1009;
}
 
object overhead_line  {
     phases "ABCN";
     name 67-72;
     from node_67;
     to load_72;
     length 275;
     configuration line_configuration:1003;
}

 
object overhead_line  {
     phases "ABCN";
     name 67-97;
     from node_67;
     to node_97;
     length 250;
     configuration line_configuration:1003;
}
 
object overhead_line  {
     phases "AN";
     name 68-69;
     from load_68;
     to load_69;
     length 275;
     configuration line_configuration:1009;
}
 
object overhead_line  {
     phases "AN";
     name 69-70;
     from load_69;
     to load_70;
     length 325;
     configuration line_configuration:1009;
}
 
object overhead_line  {
     phases "AN";
     name 70-71;
     from load_70;
     to load_71;
     length 275;
     configuration line_configuration:1009;
}
 
object overhead_line  {
     phases "CN";
     name 72-73;
     from load_72;
     to load_73;
     length 275;
     configuration line_configuration:10011;
}
 
object overhead_line  {
     phases "ABCN";
     name 72-76;
     from load_72;
     to load_76;
     length 200;
     configuration line_configuration:1003;
}
 
object overhead_line  {
     phases "CN";
     name 73-74;
     from load_73;
     to load_74;
     length 350;
     configuration line_configuration:10011;
}
 
object overhead_line  {
     phases "CN";
     name 74-75;
     from load_74;
     to load_75;
     length 400;
     configuration line_configuration:10011;
}
 
object overhead_line  {
     phases "ABCN";
     name 76-77;
     from load_76;
     to load_77;
     length 400;
     configuration line_configuration:1006;
}
 
object overhead_line  {
     phases "ABCN";
     name 76-86;
     from load_76;
     to load_86;
     length 700;
     configuration line_configuration:1003;
}
 
object overhead_line  {
     phases "ABCN";
     name 77-78;
     from load_77;
     to node_78;
     length 100;
     configuration line_configuration:1006;
}
 
object overhead_line  {
     phases "ABCN";
     name 78-79;
     from node_78;
     to load_79;
     length 225;
     configuration line_configuration:1006;
}
 
object overhead_line  {
     phases "ABCN";
     name 78-80;
     from node_78;
     to load_80;
     length 475;
     configuration line_configuration:1006;
}
 
object overhead_line  {
     phases "ABCN";
     name 80-81;
     from load_80;
     to node_81;
     length 475;
     configuration line_configuration:1006;
}
 
object overhead_line  {
     phases "ABCN";
     name 81-82;
     from node_81;
     to load_82;
     length 250;
     configuration line_configuration:1006;
}
 
object overhead_line  {
     phases "CN";
     name 81-84;
     from node_81;
     to load_84;
     length 675;
     configuration line_configuration:10011;
}
 
object overhead_line  {
     phases "ABCN";
     name 82-83;
     from load_82;
     to load_83;
     length 250;
     configuration line_configuration:1006;
}
 
object overhead_line  {
     phases "CN";
     name 84-85;
     from load_84;
     to load_85;
     length 475;
     configuration line_configuration:10011;
}
 
object overhead_line  {
     phases "ABCN";
     name 86-87;
     from load_86;
     to load_87;
     length 450;
     configuration line_configuration:1006;
}
 
object overhead_line  {
     phases "AN";
     name 87-88;
     from load_87;
     to load_88;
     length 175;
     configuration line_configuration:1009;
}
 
object overhead_line  {
     phases "ABCN";
     name 87-89;
     from load_87;
     to node_89;
     length 275;
     configuration line_configuration:1006;
}
 
object overhead_line  {
     phases "BN";
     name 89-90;
     from node_89;
     to load_90;
     length 225;
     configuration line_configuration:10010;
}
 
object overhead_line  {
     phases "ABCN";
     name 89-91;
     from node_89;
     to node_91;
     length 225;
     configuration line_configuration:1006;
}
 
object overhead_line  {
     phases "CN";
     name 91-92;
     from node_91;
     to load_92;
     length 300;
     configuration line_configuration:10011;
}
 
object overhead_line  {
     phases "ABCN";
     name 91-93;
     from node_91;
     to node_93;
     length 225;
     configuration line_configuration:1006;
}
 
object overhead_line  {
     phases "AN";
     name 93-94;
     from node_93;
     to load_94;
     length 275;
     configuration line_configuration:1009;
}
 
object overhead_line  {
     phases "ABCN";
     name 93-95;
     from node_93;
     to load_95;
     length 300;
     configuration line_configuration:1006;
}
 
object overhead_line  {
     phases "BN";
     name 95-96;
     from load_95;
     to load_96;
     length 200;
     configuration line_configuration:10010;
}
 
object overhead_line  {
     phases "ABCN";
     name 97-98;
     from node_97;
     to load_98;
     length 275;
     configuration line_configuration:1003;
}
 
object overhead_line  {
     phases "ABCN";
     name 98-99;
     from load_98;
     to load_99;
     length 550;
     configuration line_configuration:1003;
}
 
object overhead_line  {
     phases "ABCN";
     name 99-100;
     from load_99;
     to load_100;
     length 300;
     configuration line_configuration:1003;
}
 
object overhead_line  {
     phases "ABCN";
     name 100-450;
     from load_100;
     to node_450;
     length 800;
     configuration line_configuration:1003;
}
 
object overhead_line  {
     phases "CN";
     name 101-102;
     from load_101;
     to load_102;
     length 225;
     configuration line_configuration:10011;
}
 
object overhead_line  {
     phases "ABCN";
     name 101-105;
     from load_101;
     to node_105;
     length 275;
     configuration line_configuration:1003;
}
 
object overhead_line  {
     phases "CN";
     name 102-103;
     from load_102;
     to load_103;
     length 325;
     configuration line_configuration:10011;
}
 
object overhead_line  {
     phases "CN";
     name 103-104;
     from load_103;
     to load_104;
     length 700;
     configuration line_configuration:10011;
}
 
object overhead_line  {
     phases "BN";
     name 105-106;
     from node_105;
     to load_106;
     length 225;
     configuration line_configuration:10010;
}
 
object overhead_line  {
     phases "ABCN";
     name 105-108;
     from node_105;
     to node_108;
     length 325;
     configuration line_configuration:1003;
}
 
object overhead_line  {
     phases "BN";
     name 106-107;
     from load_106;
     to load_107;
     length 575;
     configuration line_configuration:10010;
}
 
object overhead_line  {
     phases "AN";
     name 108-109;
     from node_108;
     to load_109;
     length 450;
     configuration line_configuration:1009;
}
 
object overhead_line  {
     phases "ABCN";
     name 108-300;
     from node_108;
     to meter_300;
     length 1000;
     configuration line_configuration:1003;
}
 
object overhead_line  {
     phases "AN";
     name 109-110;
     from load_109;
     to node_110;
     length 300;
     configuration line_configuration:1009;
}
 
object overhead_line  {
     phases "AN";
     name 110-111;
     from node_110;
     to load_111;
     length 575;
     configuration line_configuration:1009;
}
 
object overhead_line  {
     phases "AN";
     name 110-112;
     from node_110;
     to load_112;
     length 125;
     configuration line_configuration:1009;
}
 
object overhead_line  {
     phases "AN";
     name 112-113;
     from load_112;
     to load_113;
     length 525;
     configuration line_configuration:1009;
}
 
object overhead_line  {
     phases "AN";
     name 113-114;
     from load_113;
     to load_114;
     length 325;
     configuration line_configuration:1009;
}
 
object overhead_line  {
     phases "ABCN";
     name 135-35;
     from node_135;
     to load_35;
     length 375;
     configuration line_configuration:1004;
}
 
object overhead_line  {
     phases "ABCN";
     name 149-1;
     from node_149;
     to load_1;
     length 400;
     configuration line_configuration:1001;
}
 
object overhead_line  {
     phases "ABCN";
     name 152-52;
     from node_152;
     to load_52;
     length 400;
     configuration line_configuration:1001;
}
 
object overhead_line  {
     phases "ABCN";
     name 6701-67;
     from node_6701;
     to node_67;
     length 350;
     configuration line_configuration:1006;
}
 
object overhead_line  {
     phases "ABCN";
     name 197-101;
     from node_197;
     to load_101;
     length 250;
     configuration line_configuration:1003;
}





//Create node only objects 
object node {
     phases "CN";
     name node_3;
     flags DELTAMODE;
	 voltage_A 2401.7771;
     voltage_B -1200.8886-2080.000j;
     voltage_C -1200.8886+2080.000j;
     nominal_voltage 2401.7771;

}
 
 
object node {
     phases "ABCN";
     name node_8;
     flags DELTAMODE;
	 voltage_A 2401.7771;
     voltage_B -1200.8886-2080.000j;
     voltage_C -1200.8886+2080.000j;
     nominal_voltage 2401.7771;

}
 

 
object meter {
     phases "ABCN";
     name meter_13;
     flags DELTAMODE;
     nominal_voltage 2401.7771;

}

 
object node {
     phases "AN";
     name node_14;
     flags DELTAMODE;
	 voltage_A 2401.7771;
     voltage_B -1200.8886-2080.000j;
     voltage_C -1200.8886+2080.000j;
     nominal_voltage 2401.7771;
}

object node {
     phases "AN";
     name node_1401;
     flags DELTAMODE;
	 voltage_A 2401.7771;
     voltage_B -1200.8886-2080.000j;
     voltage_C -1200.8886+2080.000j;
     nominal_voltage 2401.7771;
}
 
object node {
     phases "CN";
     name node_15;
     flags DELTAMODE;
	 voltage_A 2401.7771;
     voltage_B -1200.8886-2080.000j;
     voltage_C -1200.8886+2080.000j;
     nominal_voltage 2401.7771;
}
 
 
object node {
     phases "ABCN";
     name node_18;
     flags DELTAMODE;
	 voltage_A 2401.7771;
     voltage_B -1200.8886-2080.000j;
     voltage_C -1200.8886+2080.000j;
     nominal_voltage 2401.7771;
}
 
 
object node {
     phases "ABCN";
     name node_21;
     flags DELTAMODE;
	 voltage_A 2401.7771;
     voltage_B -1200.8886-2080.000j;
     voltage_C -1200.8886+2080.000j;
     nominal_voltage 2401.7771;
}
 

 
object node {
     phases "ABCN";
     name node_23;
     flags DELTAMODE;
	 voltage_A 2401.7771;
     voltage_B -1200.8886-2080.000j;
     voltage_C -1200.8886+2080.000j;
     nominal_voltage 2401.7771;
}
 

 
object node {
     phases "ABCN";
     name node_25;
     flags DELTAMODE;
	 voltage_A 2401.7771;
     voltage_B -1200.8886-2080.000j;