clock {
	timezone EST+5EDT;
	starttime "2000-01-01 0:00:00";
	stoptime "2000-01-01 0:00:00";
};

#set relax_naming_rules=1;
#set profiler=1;

#define VSOURCE=69715.045;




module tape {
};

module powerflow {
	solver_method NR;
	lu_solver KLU;
	line_capacitance true;
};

module generators {
};

module reliability {
	report_event_log false;
};

#include "Rotating_Machines.glm";
#include "Inverters.glm";

object fault_check {
	name base_fault_check_object;
	check_mode ONCHANGE;
	strictly_radial false;
	grid_association true;
	output_filename testtopo.txt;
};

object overhead_line_conductor {
	name wire_1/0_3w_cs;
	geometric_mean_radius 0.011417;
	diameter 0.39800;
	resistance 0.971519;
	rating ".winter.emergency 200.00";
};

object overhead_line_conductor {
	name wire_1/0_acsr;
	geometric_mean_radius 0.004458;
	diameter 0.39800;
	resistance 1.040999;
	rating ".winter.emergency 260.00";
};

object overhead_line_conductor {
	name wire_4_wpal;
	geometric_mean_radius 0.00700;
	diameter 0.25000;
	resistance 2.459419;
	rating ".winter.emergency 150.00";
};

object overhead_line_conductor {
	name wire_4_acsr;
	geometric_mean_radius 0.004367;
	diameter 0.25000;
	resistance 2.530689;
	rating ".winter.emergency 150.00";
};

object overhead_line_conductor {
	name wire_4_dpx;
	geometric_mean_radius 0.00700;
	diameter 0.25000;
	resistance 2.449900;
	rating ".winter.emergency 136.00";
};

object overhead_line_conductor {
	name wire_2/0_wpal;
	geometric_mean_radius 0.005100;
	diameter 0.44700;
	resistance 0.853001;
	rating ".winter.emergency 300.00";
};

object overhead_line_conductor {
	name wire_397_acsr;
	geometric_mean_radius 0.02400;
	diameter 0.74300;
	resistance 0.256999;
	rating ".winter.emergency 630.00";
};

object overhead_line_conductor {
	name wire_397_aac_treewire;
	geometric_mean_radius 0.02400;
	diameter 0.74300;
	resistance 0.283008;
	rating ".winter.emergency 526.00";
};

object overhead_line_conductor {
	name wire_2_acsr;
	geometric_mean_radius 0.004183;
	diameter 0.31600;
	resistance 1.625700;
	rating ".winter.emergency 200.00";
};

object overhead_line_conductor {
	name wire_2_wpal;
	geometric_mean_radius 0.004183;
	diameter 0.31600;
	resistance 1.690130;
	rating ".winter.emergency 155.00";
};

object overhead_line_conductor {
	name wire_6_wpal;
	geometric_mean_radius 0.003942;
	diameter 0.19800;
	resistance 3.910899;
	rating ".winter.emergency 115.00";
};

object overhead_line_conductor {
	name wire_4_tpx;
	geometric_mean_radius 0.00700;
	diameter 0.25000;
	resistance 2.449900;
	rating ".winter.emergency 115.00";
};

object overhead_line_conductor {
	name wire_1/0_tpx;
	geometric_mean_radius 0.011417;
	diameter 0.39800;
	resistance 0.18400;
	rating ".winter.emergency 205.00";
};

object overhead_line_conductor {
	name wire_4/0_tpx;
	geometric_mean_radius 0.015767;
	diameter 0.56300;
	resistance 0.485760;
	rating ".winter.emergency 318.00";
};

object overhead_line_conductor {
	name wire_2/0_acsr;
	geometric_mean_radius 0.005100;
	diameter 0.44700;
	resistance 0.853001;
	rating ".winter.emergency 300.00";
};

object underground_line_conductor {
	name cncab_1/0_al_15kv_1/3;
	neutral_gmr 0.000819;
	neutral_diameter 0.025197;
	neutral_resistance 4.103827;
	neutral_strands 6;
	conductor_gmr 0.011089;
	conductor_diameter 0.368110;
	conductor_resistance 0.970434;
	outer_diameter 1.078740;
	insulation_relative_permitivitty 2.30;
};

object line_spacing {
	name spc_3ph_h-4_acsr2_acsr2_acsr4_wpal_ABCN;
	distance_AB 3.2016;
	distance_AC 4.000;
	distance_AN 5.5902;
	distance_AE 32.000;
	distance_BC 2.500;
	distance_BN 7.000;
	distance_BE 34.000;
	distance_CN 5.2202;
	distance_CE 32.000;
	distance_NE 27.000;
};

object line_spacing {
	name spc_1ph-4_acsrxx1/0_tpx_AN;
	distance_AN 7.5664;
	distance_AE 34.500;
	distance_NE 27.000;
};

object line_spacing {
	name spc_1ph-x4_wpalx4_wpal_BN;
	distance_BN 7.5664;
	distance_BE 34.500;
	distance_NE 27.000;
};

object line_spacing {
	name spc_1ph-x4_wpalx1/0_tpx_BN;
	distance_BN 7.5664;
	distance_BE 34.500;
	distance_NE 27.000;
};

object line_spacing {
	name spc_3ph_h-4_wpal4_wpal4_wpal1/0_tpx_ABCN;
	distance_AB 3.2016;
	distance_AC 4.000;
	distance_AN 5.5902;
	distance_AE 32.000;
	distance_BC 2.500;
	distance_BN 7.000;
	distance_BE 34.000;
	distance_CN 5.2202;
	distance_CE 32.000;
	distance_NE 27.000;
};

object line_spacing {
	name spc_3ph_h-4_acsr4_acsr4_acsr4_wpal_ABCN;
	distance_AB 3.2016;
	distance_AC 4.000;
	distance_AN 5.5902;
	distance_AE 32.000;
	distance_BC 2.500;
	distance_BN 7.000;
	distance_BE 34.000;
	distance_CN 5.2202;
	distance_CE 32.000;
	distance_NE 27.000;
};

object line_spacing {
	name spc_3ph_h-2/0_acsr2/0_acsr2/0_acsr2_acsr_ABCN;
	distance_AB 3.2016;
	distance_AC 4.000;
	distance_AN 5.5902;
	distance_AE 32.000;
	distance_BC 2.500;
	distance_BN 7.000;
	distance_BE 34.000;
	distance_CN 5.2202;
	distance_CE 32.000;
	distance_NE 27.000;
};

object line_spacing {
	name spc_1ph-x4_wpalx2_acsr_BN;
	distance_BN 7.5664;
	distance_BE 34.500;
	distance_NE 27.000;
};

object line_spacing {
	name spc_1ph-xx6_wpal6_wpal_CN;
	distance_CN 7.5664;
	distance_CE 34.500;
	distance_NE 27.000;
};

object line_spacing {
	name spc_1ph-x4_acsrx4_wpal_BN;
	distance_BN 7.5664;
	distance_BE 34.500;
	distance_NE 27.000;
};

object line_spacing {
	name spc_1ph-xx4_wpal4_wpal_CN;
	distance_CN 7.5664;
	distance_CE 34.500;
	distance_NE 27.000;
};

object line_spacing {
	name spc_1ph-2_acsrxx4_wpal_AN;
	distance_AN 7.5664;
	distance_AE 34.500;
	distance_NE 27.000;
};

object line_spacing {
	name spc_1ph-x4_acsrx1/0_tpx_BN;
	distance_BN 7.5664;
	distance_BE 34.500;
	distance_NE 27.000;
};

object line_spacing {
	name spc_1ph-x2_acsrx1/0_tpx_BN;
	distance_BN 7.5664;
	distance_BE 34.500;
	distance_NE 27.000;
};

object line_spacing {
	name spc_1ph-x4_acsrx4_tpx_BN;
	distance_BN 7.5664;
	distance_BE 34.500;
	distance_NE 27.000;
};

object line_spacing {
	name spc_3ph_h-2_acsr2_acsr4_acsr4_acsr_ABCN;
	distance_AB 3.2016;
	distance_AC 4.000;
	distance_AN 5.5902;
	distance_AE 32.000;
	distance_BC 2.500;
	distance_BN 7.000;
	distance_BE 34.000;
	distance_CN 5.2202;
	distance_CE 32.000;
	distance_NE 27.000;
};

object line_spacing {
	name spc_3ph_h-397_acsr397_acsr397_acsr2/0_wpal_ABCN;
	distance_AB 3.2016;
	distance_AC 4.000;
	distance_AN 5.5902;
	distance_AE 32.000;
	distance_BC 2.500;
	distance_BN 7.000;
	distance_BE 34.000;
	distance_CN 5.2202;
	distance_CE 32.000;
	distance_NE 27.000;
};

object line_spacing {
	name spc_1ph-x4_acsrx1/0_3w_cs_BN;
	distance_BN 7.5664;
	distance_BE 34.500;
	distance_NE 27.000;
};

object line_spacing {
	name spc_1p_1/0_axnj_db_A;
	distance_AE -4.0026;
};

object line_spacing {
	name spc_1p_1/0_axnj_db_B;
	distance_BE -4.0026;
};

object line_spacing {
	name spc_1p_1/0_axnj_db_C;
	distance_CE -4.0026;
};

object line_spacing {
	name spc_1ph-2_acsrxx4_acsr_AN;
	distance_AN 7.5664;
	distance_AE 34.500;
	distance_NE 27.000;
};

object line_spacing {
	name spc_1ph-xx4_acsr1/0_acsr_CN;
	distance_CN 7.5664;
	distance_CE 34.500;
	distance_NE 27.000;
};

object line_spacing {
	name spc_1ph-2_acsrxx2_acsr_AN;
	distance_AN 7.5664;
	distance_AE 34.500;
	distance_NE 27.000;
};

object line_spacing {
	name spc_1ph-2_acsrxx2_acsr_CN;
	distance_CN 7.5664;
	distance_CE 34.500;
	distance_NE 27.000;
};

object line_spacing {
	name spc_1ph-xx4_wpal4_acsr_CN;
	distance_CN 7.5664;
	distance_CE 34.500;
	distance_NE 27.000;
};

object line_spacing {
	name spc_3p_1/0_axnj_db_ABC;
	distance_AB 0.500;
	distance_AC 1.000;
	distance_AE -4.0026;
	distance_BC 0.500;
	distance_BE -4.0026;
	distance_CE -4.0026;
};

object line_spacing {
	name spc_1ph-4_acsrxx4_acsr_AN;
	distance_AN 7.5664;
	distance_AE 34.500;
	distance_NE 27.000;
};

object line_spacing {
	name spc_1ph-4_acsrxx4_acsr_CN;
	distance_CN 7.5664;
	distance_CE 34.500;
	distance_NE 27.000;
};

object line_spacing {
	name spc_1ph-2_acsrxx4/0_tpx_AN;
	distance_AN 7.5664;
	distance_AE 34.500;
	distance_NE 27.000;
};

object line_spacing {
	name spc_1ph-x4_acsrx4_dpx_BN;
	distance_BN 7.5664;
	distance_BE 34.500;
	distance_NE 27.000;
};

object line_spacing {
	name spc_1ph-xx4_acsr4_tpx_CN;
	distance_CN 7.5664;
	distance_CE 34.500;
	distance_NE 27.000;
};

object line_spacing {
	name spc_1ph-4_acsrxx6_wpal_AN;
	distance_AN 7.5664;
	distance_AE 34.500;
	distance_NE 27.000;
};

object line_spacing {
	name spc_1ph-x4_acsrx2_wpal_BN;
	distance_BN 7.5664;
	distance_BE 34.500;
	distance_NE 27.000;
};

object line_spacing {
	name spc_1ph-x4_wpalx4_acsr_BN;
	distance_BN 7.5664;
	distance_BE 34.500;
	distance_NE 27.000;
};

object line_spacing {
	name spc_1ph-xx4_acsr4_acsr_AN;
	distance_AN 7.5664;
	distance_AE 34.500;
	distance_NE 27.000;
};

object line_spacing {
	name spc_1ph-xx4_acsr4_acsr_BN;
	distance_BN 7.5664;
	distance_BE 34.500;
	distance_NE 27.000;
};

object line_spacing {
	name spc_1ph-xx4_acsr4_acsr_CN;
	distance_CN 7.5664;
	distance_CE 34.500;
	distance_NE 27.000;
};

object line_spacing {
	name spc_1ph-xx4_wpal1/0_tpx_CN;
	distance_CN 7.5664;
	distance_CE 34.500;
	distance_NE 27.000;
};

object line_spacing {
	name spc_2ph_h-2_acsrx2_acsr2_acsr_ACN;
	distance_AC 4.000;
	distance_AN 5.5902;
	distance_AE 32.000;
	distance_CN 5.2202;
	distance_CE 32.000;
	distance_NE 27.000;
};

object line_spacing {
	name spc_3ph_h-4_wpal4_wpal4_wpal4_wpal_ABCN;
	distance_AB 3.2016;
	distance_AC 4.000;
	distance_AN 5.5902;
	distance_AE 32.000;
	distance_BC 2.500;
	distance_BN 7.000;
	distance_BE 34.000;
	distance_CN 5.2202;
	distance_CE 32.000;
	distance_NE 27.000;
};

object line_spacing {
	name spc_1ph-2_acsrxx1/0_tpx_AN;
	distance_AN 7.5664;
	distance_AE 34.500;
	distance_NE 27.000;
};

object line_spacing {
	name spc_1ph-x2_acsrx1/0_3w_cs_BN;
	distance_BN 7.5664;
	distance_BE 34.500;
	distance_NE 27.000;
};

object line_spacing {
	name spc_3ph_h-2/0_acsr2/0_acsr2/0_acsr4_acsr_ABCN;
	distance_AB 3.2016;
	distance_AC 4.000;
	distance_AN 5.5902;
	distance_AE 32.000;
	distance_BC 2.500;
	distance_BN 7.000;
	distance_BE 34.000;
	distance_CN 5.2202;
	distance_CE 32.000;
	distance_NE 27.000;
};

object line_spacing {
	name spc_1ph-4_wpalxx2_wpal_AN;
	distance_AN 7.5664;
	distance_AE 34.500;
	distance_NE 27.000;
};

object line_spacing {
	name spc_1ph-x2_acsrx4_tpx_BN;
	distance_BN 7.5664;
	distance_BE 34.500;
	distance_NE 27.000;
};

object line_spacing {
	name spc_3ph-69kv_397_treewire_ABCN;
	distance_AB 6.4185;
	distance_AC 10.0066;
	distance_AN 16.0806;
	distance_AE 39.9934;
	distance_BC 6.3929;
	distance_BN 11.2716;
	distance_BE 45.0131;
	distance_CN 6.1885;
	distance_CE 50.000;
	distance_NE 56.0039;
};

object line_spacing {
	name spc_1ph-x2_acsrx4_acsr_BN;
	distance_BN 7.5664;
	distance_BE 34.500;
	distance_NE 27.000;
};

object line_spacing {
	name spc_1ph-4_wpalxx4_acsr_AN;
	distance_AN 7.5664;
	distance_AE 34.500;
	distance_NE 27.000;
};

object line_spacing {
	name spc_1ph-2_wpalxx2_wpal_AN;
	distance_AN 7.5664;
	distance_AE 34.500;
	distance_NE 27.000;
};

object line_spacing {
	name spc_1ph-4_acsrxx2_acsr_AN;
	distance_AN 7.5664;
	distance_AE 34.500;
	distance_NE 27.000;
};

object line_spacing {
	name spc_1ph-4_acsrxx2_acsr_CN;
	distance_CN 7.5664;
	distance_CE 34.500;
	distance_NE 27.000;
};

object line_spacing {
	name spc_1ph-x4_acsrx4_acsr_AN;
	distance_AN 7.5664;
	distance_AE 34.500;
	distance_NE 27.000;
};

object line_spacing {
	name spc_1ph-x4_acsrx4_acsr_BN;
	distance_BN 7.5664;
	distance_BE 34.500;
	distance_NE 27.000;
};

object line_spacing {
	name spc_3ph_h-4_acsr4_acsr4_acsr4_acsr_ABCN;
	distance_AB 3.2016;
	distance_AC 4.000;
	distance_AN 5.5902;
	distance_AE 32.000;
	distance_BC 2.500;
	distance_BN 7.000;
	distance_BE 34.000;
	distance_CN 5.2202;
	distance_CE 32.000;
	distance_NE 27.000;
};

object line_spacing {
	name spc_1ph-xx2_acsr4_dpx_CN;
	distance_CN 7.5664;
	distance_CE 34.500;
	distance_NE 27.000;
};

object line_spacing {
	name spc_1ph-x2_acsrx2_acsr_AN;
	distance_AN 7.5664;
	distance_AE 34.500;
	distance_NE 27.000;
};

object line_spacing {
	name spc_1ph-x2_acsrx2_acsr_BN;
	distance_BN 7.5664;
	distance_BE 34.500;
	distance_NE 27.000;
};

object line_spacing {
	name spc_1ph-x2_acsrx2_acsr_CN;
	distance_CN 7.5664;
	distance_CE 34.500;
	distance_NE 27.000;
};

object line_spacing {
	name spc_1ph-4_acsrxx4_wpal_AN;
	distance_AN 7.5664;
	distance_AE 34.500;
	distance_NE 27.000;
};

object line_spacing {
	name spc_1ph-xx4_acsr2_acsr_CN;
	distance_CN 7.5664;
	distance_CE 34.500;
	distance_NE 27.000;
};

object line_spacing {
	name spc_1ph-4_wpalxx1/0_tpx_AN;
	distance_AN 7.5664;
	distance_AE 34.500;
	distance_NE 27.000;
};

object line_spacing {
	name spc_3ph_h-397_acsr397_acsr397_acsr397_acsr_ABCN;
	distance_AB 3.2016;
	distance_AC 4.000;
	distance_AN 5.5902;
	distance_AE 32.000;
	distance_BC 2.500;
	distance_BN 7.000;
	distance_BE 34.000;
	distance_CN 5.2202;
	distance_CE 32.000;
	distance_NE 27.000;
};

object line_spacing {
	name spc_1ph-xx2_acsr1/0_tpx_CN;
	distance_CN 7.5664;
	distance_CE 34.500;
	distance_NE 27.000;
};

object line_spacing {
	name spc_3ph_h-2_acsr2_acsr2_acsr2_acsr_ABCN;
	distance_AB 3.2016;
	distance_AC 4.000;
	distance_AN 5.5902;
	distance_AE 32.000;
	distance_BC 2.500;
	distance_BN 7.000;
	distance_BE 34.000;
	distance_CN 5.2202;
	distance_CE 32.000;
	distance_NE 27.000;
};

object line_spacing {
	name spc_1ph-xx4_acsr4_wpal_AN;
	distance_AN 7.5664;
	distance_AE 34.500;
	distance_NE 27.000;
};

object line_spacing {
	name spc_1ph-xx4_acsr4_wpal_CN;
	distance_CN 7.5664;
	distance_CE 34.500;
	distance_NE 27.000;
};

object line_spacing {
	name spc_1ph-2/0_acsrxx2_acsr_AN;
	distance_AN 7.5664;
	distance_AE 34.500;
	distance_NE 27.000;
};

object line_spacing {
	name spc_1ph-xx2/0_acsr1/0_tpx_CN;
	distance_CN 7.5664;
	distance_CE 34.500;
	distance_NE 27.000;
};

object line_spacing {
	name spc_3ph_h-397_acsr397_acsr397_acsr2/0_acsr_ABCN;
	distance_AB 3.2016;
	distance_AC 4.000;
	distance_AN 5.5902;
	distance_AE 32.000;
	distance_BC 2.500;
	distance_BN 7.000;
	distance_BE 34.000;
	distance_CN 5.2202;
	distance_CE 32.000;
	distance_NE 27.000;
};

object line_spacing {
	name spc_1ph-xx2_acsr2_acsr_AN;
	distance_AN 7.5664;
	distance_AE 34.500;
	distance_NE 27.000;
};

object line_spacing {
	name spc_1ph-xx2_acsr2_acsr_CN;
	distance_CN 7.5664;
	distance_CE 34.500;
	distance_NE 27.000;
};

object line_spacing {
	name spc_3ph_h-2/0_acsr2/0_acsr2/0_acsr2_wpal_ABCN;
	distance_AB 3.2016;
	distance_AC 4.000;
	distance_AN 5.5902;
	distance_AE 32.000;
	distance_BC 2.500;
	distance_BN 7.000;
	distance_BE 34.000;
	distance_CN 5.2202;
	distance_CE 32.000;
	distance_NE 27.000;
};

object line_spacing {
	name spc_1ph-4_wpalxx4_wpal_AN;
	distance_AN 7.5664;
	distance_AE 34.500;
	distance_NE 27.000;
};

object line_spacing {
	name spc_1ph-4_wpalxx4_wpal_CN;
	distance_CN 7.5664;
	distance_CE 34.500;
	distance_NE 27.000;
};

object line_spacing {
	name spc_3ph_h-4_acsr4_acsr4_acsr4_tpx_ABCN;
	distance_AB 3.2016;
	distance_AC 4.000;
	distance_AN 5.5902;
	distance_AE 32.000;
	distance_BC 2.500;
	distance_BN 7.000;
	distance_BE 34.000;
	distance_CN 5.2202;
	distance_CE 32.000;
	distance_NE 27.000;
};

object line_spacing {
	name spc_1ph-4_acsrxx1/0_3w_cs_AN;
	distance_AN 7.5664;
	distance_AE 34.500;
	distance_NE 27.000;
};

object line_configuration {
	name lcon_3ph_h-397_acsr397_acsr397_acsr397_acsr_ln5742828-1;
	spacing spc_3ph_h-397_acsr397_acsr397_acsr397_acsr_ABCN;
	conductor_A wire_397_acsr;
	conductor_B wire_397_acsr;
	conductor_C wire_397_acsr;
	conductor_N wire_397_acsr;
};

object line_configuration {
	name lcon_1ph-4_acsrxx4_wpal_ln6108134-1;
	spacing spc_1ph-4_acsrxx4_wpal_AN;
	conductor_A wire_4_acsr;
	conductor_N wire_4_wpal;
};

object line_configuration {
	name lcon_1ph-4_wpalxx1/0_tpx_ln5895784-1;
	spacing spc_1ph-4_wpalxx1/0_tpx_AN;
	conductor_A wire_4_wpal;
	conductor_N wire_1/0_tpx;
};

object line_configuration {
	name lcon_1ph-4_acsrxx2_acsr_ln6019479-1;
	spacing spc_1ph-4_acsrxx2_acsr_CN;
	conductor_C wire_4_acsr;
	conductor_N wire_2_acsr;
};

object line_configuration {
	name lcon_1ph-x2_acsrx1/0_tpx_ln5532786-2;
	spacing spc_1ph-x2_acsrx1/0_tpx_BN;
	conductor_B wire_2_acsr;
	conductor_N wire_1/0_tpx;
};

object line_configuration {
	name lcon_1ph-x4_acsrx2_wpal_ln5496577-1;
	spacing spc_1ph-x4_acsrx2_wpal_BN;
	conductor_B wire_4_acsr;
	conductor_N wire_2_wpal;
};

object line_configuration {
	name lcon_1ph-x2_acsrx1/0_3w_cs_ln6043468-3;
	spacing spc_1ph-x2_acsrx1/0_3w_cs_BN;
	conductor_B wire_2_acsr;
	conductor_N wire_1/0_3w_cs;
};

object line_configuration {
	name lcon_1ph-4_acsrxx6_wpal_ln5895785-1;
	spacing spc_1ph-4_acsrxx6_wpal_AN;
	conductor_A wire_4_acsr;
	conductor_N wire_6_wpal;
};

object line_configuration {
	name lcon_3ph_h-397_acsr397_acsr397_acsr2/0_wpal_ln6291244-1;
	spacing spc_3ph_h-397_acsr397_acsr397_acsr2/0_wpal_ABCN;
	conductor_A wire_397_acsr;
	conductor_B wire_397_acsr;
	conductor_C wire_397_acsr;
	conductor_N wire_2/0_wpal;
};

object line_configuration {
	name lcon_1ph-xx2_acsr4_dpx_ln5744331-1;
	spacing spc_1ph-xx2_acsr4_dpx_CN;
	conductor_C wire_2_acsr;
	conductor_N wire_4_dpx;
};

object line_configuration {
	name lcon_1ph-4_acsrxx1/0_3w_cs_ln5686244-1;
	spacing spc_1ph-4_acsrxx1/0_3w_cs_AN;
	conductor_A wire_4_acsr;
	conductor_N wire_1/0_3w_cs;
};

object line_configuration {
	name lcon_1ph-4_wpalxx4_wpal_ln6198049-1;
	spacing spc_1ph-4_wpalxx4_wpal_CN;
	conductor_C wire_4_wpal;
	conductor_N wire_4_wpal;
};

object line_configuration {
	name lcon_1p_1/0_axnj_db_ln8945010-1;
	spacing spc_1p_1/0_axnj_db_C;
	conductor_C cncab_1/0_al_15kv_1/3;
};

object line_configuration {
	name lcon_1ph-2_acsrxx1/0_tpx_ln5528573-2;
	spacing spc_1ph-2_acsrxx1/0_tpx_AN;
	conductor_A wire_2_acsr;
	conductor_N wire_1/0_tpx;
};

object line_configuration {
	name lcon_1ph-2_acsrxx2_acsr_ln6320335-1;
	spacing spc_1ph-2_acsrxx2_acsr_AN;
	conductor_A wire_2_acsr;
	conductor_N wire_2_acsr;
};

object line_configuration {
	name lcon_3ph_h-4_acsr4_acsr4_acsr4_tpx_ln5742835-1;
	spacing spc_3ph_h-4_acsr4_acsr4_acsr4_tpx_ABCN;
	conductor_A wire_4_acsr;
	conductor_B wire_4_acsr;
	conductor_C wire_4_acsr;
	conductor_N wire_4_tpx;
};

object line_configuration {
	name lcon_1ph-xx4_acsr1/0_acsr_ln5852082-1;
	spacing spc_1ph-xx4_acsr1/0_acsr_CN;
	conductor_C wire_4_acsr;
	conductor_N wire_1/0_acsr;
};

object line_configuration {
	name lcon_1ph-x2_acsrx4_tpx_ln6169266-1;
	spacing spc_1ph-x2_acsrx4_tpx_BN;
	conductor_B wire_2_acsr;
	conductor_N wire_4_tpx;
};

object line_configuration {
	name lcon_3ph_h-4_acsr2_acsr2_acsr4_wpal_ln5774458-1;
	spacing spc_3ph_h-4_acsr2_acsr2_acsr4_wpal_ABCN;
	conductor_A wire_4_acsr;
	conductor_B wire_2_acsr;
	conductor_C wire_2_acsr;
	conductor_N wire_4_wpal;
};

object line_configuration {
	name lcon_1ph-xx4_wpal1/0_tpx_ln5956462-1;
	spacing spc_1ph-xx4_wpal1/0_tpx_CN;
	conductor_C wire_4_wpal;
	conductor_N wire_1/0_tpx;
};

object line_configuration {
	name lcon_1ph-xx2_acsr2_acsr_ln6411379-1;
	spacing spc_1ph-xx2_acsr2_acsr_AN;
	conductor_A wire_2_acsr;
	conductor_N wire_2_acsr;
};

object line_configuration {
	name lcon_3ph_h-2/0_acsr2/0_acsr2/0_acsr4_acsr_ln5898194-1;
	spacing spc_3ph_h-2/0_acsr2/0_acsr2/0_acsr4_acsr_ABCN;
	conductor_A wire_2/0_acsr;
	conductor_B wire_2/0_acsr;
	conductor_C wire_2/0_acsr;
	conductor_N wire_4_acsr;
};

object line_configuration {
	name lcon_1ph-x4_acsrx1/0_tpx_ln5562952-1;
	spacing spc_1ph-x4_acsrx1/0_tpx_BN;
	conductor_B wire_4_acsr;
	conductor_N wire_1/0_tpx;
};

object line_configuration {
	name lcon_1ph-2_acsrxx4/0_tpx_ln6103927-1;
	spacing spc_1ph-2_acsrxx4/0_tpx_AN;
	conductor_A wire_2_acsr;
	conductor_N wire_4/0_tpx;
};

object line_configuration {
	name lcon_1ph-4_wpalxx2_wpal_ln5561444-1;
	spacing spc_1ph-4_wpalxx2_wpal_AN;
	conductor_A wire_4_wpal;
	conductor_N wire_2_wpal;
};

object line_configuration {
	name lcon_3ph_h-2/0_acsr2/0_acsr2/0_acsr2_acsr_ln1047pvfrm-2;
	spacing spc_3ph_h-2/0_acsr2/0_acsr2/0_acsr2_acsr_ABCN;
	conductor_A wire_2/0_acsr;
	conductor_B wire_2/0_acsr;
	conductor_C wire_2/0_acsr;
	conductor_N wire_2_acsr;
};

object line_configuration {
	name lcon_1ph-x4_wpalx2_acsr_ln5472350-1;
	spacing spc_1ph-x4_wpalx2_acsr_BN;
	conductor_B wire_4_wpal;
	conductor_N wire_2_acsr;
};

object line_configuration {
	name lcon_1ph-2_wpalxx2_wpal_ln6409800-1;
	spacing spc_1ph-2_wpalxx2_wpal_AN;
	conductor_A wire_2_wpal;
	conductor_N wire_2_wpal;
};

object line_configuration {
	name lcon_3ph_h-2_acsr2_acsr4_acsr4_acsr_ln5655838-1;
	spacing spc_3ph_h-2_acsr2_acsr4_acsr4_acsr_ABCN;
	conductor_A wire_2_acsr;
	conductor_B wire_2_acsr;
	conductor_C wire_4_acsr;
	conductor_N wire_4_acsr;
};

object line_configuration {
	name lcon_1ph-xx4_acsr4_wpal_ln5833622-1;
	spacing spc_1ph-xx4_acsr4_wpal_CN;
	conductor_C wire_4_acsr;
	conductor_N wire_4_wpal;
};

object line_configuration {
	name lcon_3p_1/0_axnj_db_ln8979254-2;
	spacing spc_3p_1/0_axnj_db_ABC;
	conductor_A cncab_1/0_al_15kv_1/3;
	conductor_B cncab_1/0_al_15kv_1/3;
	conductor_C cncab_1/0_al_15kv_1/3;
};

object line_configuration {
	name lcon_1ph-2_acsrxx4_acsr_ln5589097-1;
	spacing spc_1ph-2_acsrxx4_acsr_AN;
	conductor_A wire_2_acsr;
	conductor_N wire_4_acsr;
};

object line_configuration {
	name lcon_1ph-xx2_acsr2_acsr_ln5565091-1;
	spacing spc_1ph-xx2_acsr2_acsr_CN;
	conductor_C wire_2_acsr;
	conductor_N wire_2_acsr;
};

object line_configuration {
	name lcon_3ph_h-2_acsr2_acsr2_acsr2_acsr_ln5958865-1;
	spacing spc_3ph_h-2_acsr2_acsr2_acsr2_acsr_ABCN;
	conductor_A wire_2_acsr;
	conductor_B wire_2_acsr;
	conductor_C wire_2_acsr;
	conductor_N wire_2_acsr;
};

object line_configuration {
	name lcon_1ph-xx6_wpal6_wpal_ln6108128-2;
	spacing spc_1ph-xx6_wpal6_wpal_CN;
	conductor_C wire_6_wpal;
	conductor_N wire_6_wpal;
};

object line_configuration {
	name lcon_1ph-xx4_acsr4_tpx_ln5531226-1;
	spacing spc_1ph-xx4_acsr4_tpx_CN;
	conductor_C wire_4_acsr;
	conductor_N wire_4_tpx;
};

object line_configuration {
	name lcon_1ph-xx4_wpal4_acsr_ln6108135-1;
	spacing spc_1ph-xx4_wpal4_acsr_CN;
	conductor_C wire_4_wpal;
	conductor_N wire_4_acsr;
};

object line_configuration {
	name lcon_1ph-x4_acsrx4_acsr_ln5833720-1;
	spacing spc_1ph-x4_acsrx4_acsr_BN;
	conductor_B wire_4_acsr;
	conductor_N wire_4_acsr;
};

object line_configuration {
	name lcon_1ph-4_wpalxx4_acsr_ln5835146-1;
	spacing spc_1ph-4_wpalxx4_acsr_AN;
	conductor_A wire_4_wpal;
	conductor_N wire_4_acsr;
};

object line_configuration {
	name lcon_1ph-2_acsrxx4_wpal_ln5686245-2;
	spacing spc_1ph-2_acsrxx4_wpal_AN;
	conductor_A wire_2_acsr;
	conductor_N wire_4_wpal;
};

object line_configuration {
	name lcon_1ph-x4_wpalx1/0_tpx_ln6077771-1;
	spacing spc_1ph-x4_wpalx1/0_tpx_BN;
	conductor_B wire_4_wpal;
	conductor_N wire_1/0_tpx;
};

object line_configuration {
	name lcon_1ph-4_acsrxx4_acsr_ln6392977-2;
	spacing spc_1ph-4_acsrxx4_acsr_AN;
	conductor_A wire_4_acsr;
	conductor_N wire_4_acsr;
};

object line_configuration {
	name lcon_3ph-69kv_397_treewire_hvmv69s1s2-3;
	spacing spc_3ph-69kv_397_treewire_ABCN;
	conductor_A wire_397_aac_treewire;
	conductor_B wire_397_aac_treewire;
	conductor_C wire_397_aac_treewire;
	conductor_N wire_2/0_acsr;
};

object line_configuration {
	name lcon_1ph-xx4_acsr4_acsr_ln5744357-1;
	spacing spc_1ph-xx4_acsr4_acsr_AN;
	conductor_A wire_4_acsr;
	conductor_N wire_4_acsr;
};

object line_configuration {
	name lcon_3ph_h-4_wpal4_wpal4_wpal1/0_tpx_ln6411371-1;
	spacing spc_3ph_h-4_wpal4_wpal4_wpal1/0_tpx_ABCN;
	conductor_A wire_4_wpal;
	conductor_B wire_4_wpal;
	conductor_C wire_4_wpal;
	conductor_N wire_1/0_tpx;
};

object line_configuration {
	name lcon_1ph-x4_acsrx1/0_3w_cs_ln5775368-1;
	spacing spc_1ph-x4_acsrx1/0_3w_cs_BN;
	conductor_B wire_4_acsr;
	conductor_N wire_1/0_3w_cs;
};

object line_configuration {
	name lcon_3ph_h-4_acsr4_acsr4_acsr4_acsr_ln6380810-1;
	spacing spc_3ph_h-4_acsr4_acsr4_acsr4_acsr_ABCN;
	conductor_A wire_4_acsr;
	conductor_B wire_4_acsr;
	conductor_C wire_4_acsr;
	conductor_N wire_4_acsr;
};

object line_configuration {
	name lcon_1ph-xx2_acsr1/0_tpx_ln6229827-1;
	spacing spc_1ph-xx2_acsr1/0_tpx_CN;
	conductor_C wire_2_acsr;
	conductor_N wire_1/0_tpx;
};

object line_configuration {
	name lcon_1p_1/0_axnj_db_ln81048087-1;
	spacing spc_1p_1/0_axnj_db_B;
	conductor_B cncab_1/0_al_15kv_1/3;
};

object line_configuration {
	name lcon_1ph-2_acsrxx2_acsr_ln5528079-3;
	spacing spc_1ph-2_acsrxx2_acsr_CN;
	conductor_C wire_2_acsr;
	conductor_N wire_2_acsr;
};

object line_configuration {
	name lcon_1ph-x4_acsrx4_acsr_ln5683000-1;
	spacing spc_1ph-x4_acsrx4_acsr_AN;
	conductor_A wire_4_acsr;
	conductor_N wire_4_acsr;
};

object line_configuration {
	name lcon_1ph-4_wpalxx4_wpal_ln5472359-1;
	spacing spc_1ph-4_wpalxx4_wpal_AN;
	conductor_A wire_4_wpal;
	conductor_N wire_4_wpal;
};

object line_configuration {
	name lcon_1ph-xx4_acsr4_wpal_ln5593235-1;
	spacing spc_1ph-xx4_acsr4_wpal_AN;
	conductor_A wire_4_acsr;
	conductor_N wire_4_wpal;
};

object line_configuration {
	name lcon_1ph-x4_acsrx4_dpx_ln6506308-1;
	spacing spc_1ph-x4_acsrx4_dpx_BN;
	conductor_B wire_4_acsr;
	conductor_N wire_4_dpx;
};

object line_configuration {
	name lcon_1ph-x4_wpalx4_wpal_ln5654485-1;
	spacing spc_1ph-x4_wpalx4_wpal_BN;
	conductor_B wire_4_wpal;
	conductor_N wire_4_wpal;
};

object line_configuration {
	name lcon_1ph-4_acsrxx4_acsr_ln6320366-1;
	spacing spc_1ph-4_acsrxx4_acsr_CN;
	conductor_C wire_4_acsr;
	conductor_N wire_4_acsr;
};

object line_configuration {
	name lcon_1ph-x2_acsrx4_acsr_ln6201698-2;
	spacing spc_1ph-x2_acsrx4_acsr_BN;
	conductor_B wire_2_acsr;
	conductor_N wire_4_acsr;
};

object line_configuration {
	name lcon_1ph-4_acsrxx2_acsr_ln5775367-1;
	spacing spc_1ph-4_acsrxx2_acsr_AN;
	conductor_A wire_4_acsr;
	conductor_N wire_2_acsr;
};

object line_configuration {
	name lcon_1ph-x2_acsrx2_acsr_ln2001215-1;
	spacing spc_1ph-x2_acsrx2_acsr_CN;
	conductor_C wire_2_acsr;
	conductor_N wire_2_acsr;
};

object line_configuration {
	name lcon_3ph_h-2/0_acsr2/0_acsr2/0_acsr2_wpal_ln6259996-1;
	spacing spc_3ph_h-2/0_acsr2/0_acsr2/0_acsr2_wpal_ABCN;
	conductor_A wire_2/0_acsr;
	conductor_B wire_2/0_acsr;
	conductor_C wire_2/0_acsr;
	conductor_N wire_2_wpal;
};

object line_configuration {
	name lcon_1ph-2/0_acsrxx2_acsr_ln6129680-2;
	spacing spc_1ph-2/0_acsrxx2_acsr_AN;
	conductor_A wire_2/0_acsr;
	conductor_N wire_2_acsr;
};

object line_configuration {
	name lcon_1ph-xx4_wpal4_wpal_ln6018241-1;
	spacing spc_1ph-xx4_wpal4_wpal_CN;
	conductor_C wire_4_wpal;
	conductor_N wire_4_wpal;
};

object line_configuration {
	name lcon_1ph-4_acsrxx1/0_tpx_ln6138596-1;
	spacing spc_1ph-4_acsrxx1/0_tpx_AN;
	conductor_A wire_4_acsr;
	conductor_N wire_1/0_tpx;
};

object line_configuration {
	name lcon_1p_1/0_axnj_db_ln8979370-1;
	spacing spc_1p_1/0_axnj_db_A;
	conductor_A cncab_1/0_al_15kv_1/3;
};

object line_configuration {
	name lcon_3ph_h-4_acsr4_acsr4_acsr4_wpal_ln5927423-1;
	spacing spc_3ph_h-4_acsr4_acsr4_acsr4_wpal_ABCN;
	conductor_A wire_4_acsr;
	conductor_B wire_4_acsr;
	conductor_C wire_4_acsr;
	conductor_N wire_4_wpal;
};

object line_configuration {
	name lcon_1ph-xx2/0_acsr1/0_tpx_ln5866260-1;
	spacing spc_1ph-xx2/0_acsr1/0_tpx_CN;
	conductor_C wire_2/0_acsr;
	conductor_N wire_1/0_tpx;
};

object line_configuration {
	name lcon_1ph-x4_acsrx4_tpx_ln5804795-1;
	spacing spc_1ph-x4_acsrx4_tpx_BN;
	conductor_B wire_4_acsr;
	conductor_N wire_4_tpx;
};

object line_configuration {
	name lcon_1ph-xx4_acsr4_acsr_ln6138606-1;
	spacing spc_1ph-xx4_acsr4_acsr_BN;
	conductor_B wire_4_acsr;
	conductor_N wire_4_acsr;
};

object line_configuration {
	name lcon_1ph-x2_acsrx2_acsr_ln2001313-1;
	spacing spc_1ph-x2_acsrx2_acsr_AN;
	conductor_A wire_2_acsr;
	conductor_N wire_2_acsr;
};

object line_configuration {
	name lcon_1ph-x4_acsrx4_wpal_ln6137086-2;
	spacing spc_1ph-x4_acsrx4_wpal_BN;
	conductor_B wire_4_acsr;
	conductor_N wire_4_wpal;
};

object line_configuration {
	name lcon_1ph-x2_acsrx2_acsr_ln5835159-1;
	spacing spc_1ph-x2_acsrx2_acsr_BN;
	conductor_B wire_2_acsr;
	conductor_N wire_2_acsr;
};

object line_configuration {
	name lcon_3ph_h-4_wpal4_wpal4_wpal4_wpal_ln5956464-1;
	spacing spc_3ph_h-4_wpal4_wpal4_wpal4_wpal_ABCN;
	conductor_A wire_4_wpal;
	conductor_B wire_4_wpal;
	conductor_C wire_4_wpal;
	conductor_N wire_4_wpal;
};

object line_configuration {
	name lcon_3ph_h-397_acsr397_acsr397_acsr2/0_acsr_ln6291242-1;
	spacing spc_3ph_h-397_acsr397_acsr397_acsr2/0_acsr_ABCN;
	conductor_A wire_397_acsr;
	conductor_B wire_397_acsr;
	conductor_C wire_397_acsr;
	conductor_N wire_2/0_acsr;
};

object line_configuration {
	name lcon_1ph-xx4_acsr2_acsr_ln5741170-3;
	spacing spc_1ph-xx4_acsr2_acsr_CN;
	conductor_C wire_4_acsr;
	conductor_N wire_2_acsr;
};

object line_configuration {
	name lcon_1ph-x4_wpalx4_acsr_ln6047568-1;
	spacing spc_1ph-x4_wpalx4_acsr_BN;
	conductor_B wire_4_wpal;
	conductor_N wire_4_acsr;
};

object line_configuration {
	name lcon_1ph-xx4_acsr4_acsr_ln5563852-1;
	spacing spc_1ph-xx4_acsr4_acsr_CN;
	conductor_C wire_4_acsr;
	conductor_N wire_4_acsr;
};

object line_configuration {
	name lcon_2ph_h-2_acsrx2_acsr2_acsr_ln5637597-1;
	spacing spc_2ph_h-2_acsrx2_acsr2_acsr_ACN;
	conductor_A wire_2_acsr;
	conductor_C wire_2_acsr;
	conductor_N wire_2_acsr;
};

object line_configuration {
	name lcon_cap_1c_PUZ_C;
	z33 1.00000+1.00000j;
	c33 0.000;
};

object line_configuration {
	name lcon_cap_3b_PUZ_B;
	z22 1.00000+1.00000j;
	c22 0.000;
};

object line_configuration {
	name lcon_cap_1b_PUZ_B;
	z22 1.00000+1.00000j;
	c22 0.000;
};

object line_configuration {
	name lcon_cap_3a_PUZ_A;
	z11 1.00000+1.00000j;
	c11 0.000;
};

object line_configuration {
	name lcon_cap_1a_PUZ_A;
	z11 1.00000+1.00000j;
	c11 0.000;
};

object line_configuration {
	name lcon_cap_2a_PUZ_A;
	z11 1.00000+1.00000j;
	c11 0.000;
};

object line_configuration {
	name lcon_cap_3c_PUZ_C;
	z33 1.00000+1.00000j;
	c33 0.000;
};

object triplex_line_configuration {
	name tcon_4/0triplex_12;
	z11 2.16454+0.880800j;
	z12 0.623542+0.673688j;
	z21 0.623542+0.673688j;
	z22 2.16454+0.880800j;
};

object line_configuration {