// This is a dynamic version of the IEEE 123 Node Test System

clock {
	timezone "PST+8PDT";
	starttime '2001-08-01 12:00:00 PST';
	stoptime '2001-08-01 12:00:35 PST';
}

#set suppress_repeat_messages=1
#set relax_naming_rules=1;
#set profiler=1
#set pauseatexit=1
#set minimum_timestep=35;
#define rotor_convergence=0.00000000000001
#set double_format=%+.12lg
#set complex_format=%+.12lg%+.12lg%c
#set complex_output_format=POLAR_DEG

//Deltamode declarations - global values
#set deltamode_timestep=100000000		//100 ms
#set deltamode_maximumtime=350000000	//3 minute
#set deltamode_iteration_limit=10		//Iteration limit
#set maximum_synctime=6400
#define VSOURCE=69715.065 //66395.28 //66395.3 //2401.8

module tape;
//module tape {
//    flush_interval -1;
//}
module reliability {
	enable_subsecond_models true;
	maximum_event_length 1800000;	//Maximum length of events in seconds (manual events are excluded from this limit)
	report_event_log false;
}

module powerflow {
	enable_subsecond_models true;
	deltamode_timestep 1 ms;	//10 ms
	solver_method NR;
	all_powerflow_delta true;
	lu_solver "KLU";
	line_capacitance true;
	//enable_inrush TRUE;
};

module connection;
object helics_msg {
    name GLD;
    message_type JSON;
    publish_period 1;
    configure "config/gridlabd_config.json";
}

module generators {
	enable_subsecond_models true;
	deltamode_timestep 1 ms;
}

 module climate;

object climate {
     name "WA-Yakima";
     tmyfile "WA-Yakima.tmy2";
         interpolate NONE;
};

object player {
        name recorder_trigger;
        parent m2001-mt1;
        file trigger.player;
        property nominal_voltage;
        flags DELTAMODE;
}
//m2001-mt1_dgmtr
object recorder {
        name recorder_ld_251859c0_Pref;
        parent ld_251859c0;
        property measured_voltage_1, measured_voltage_2, measured_voltage_12;
        flags DELTAMODE;
        interval 1;
        file "pow/ld_251859c0.csv";
};



object regulator_configuration {
  name "rcon_feeder_reg3a";
  connect_type WYE_WYE;
	Control MANUAL; // OUTPUT_VOLTAGE;
  // use these for OUTPUT_VOLTAGE mode
  // band_center 7380.000000;
  // band_width 120.000000;
  // use these for LINE_DROP_COMP mode
  // band_center 123.000000;
  // band_width 2.000000;
  // transducer ratios only apply to LINE_DROP_COMP mode
  current_transducer_ratio 1500.000000;
  power_transducer_ratio 60.000000;
  dwell_time 15.000000;
  raise_taps 16;
  lower_taps 16;
  regulation 0.100000;
  Type B;
  compensator_r_setting_A 0.000000;
  compensator_x_setting_A 0.000000;
  // comment out the manual tap setting if using automatic control
  tap_pos_A -1;
}
object regulator {
  name "reg_feeder_reg3a";
  from "regxfmr_hvmv11sub3_lsb";
  to "hvmv11sub3_lsb";
  phases A;
  configuration "rcon_feeder_reg3a";
  continuous_rating_A 4201.39;
  emergency_rating_A 5729.17;
}
object regulator_configuration {
  name "rcon_feeder_reg2a";
  connect_type WYE_WYE;
	Control MANUAL; // OUTPUT_VOLTAGE;
  // use these for OUTPUT_VOLTAGE mode
  // band_center 7380.000000;
  // band_width 120.000000;
  // use these for LINE_DROP_COMP mode
  // band_center 123.000000;
  // band_width 2.000000;
  // transducer ratios only apply to LINE_DROP_COMP mode
  current_transducer_ratio 1500.000000;
  power_transducer_ratio 60.000000;
  dwell_time 15.000000;
  raise_taps 16;
  lower_taps 16;
  regulation 0.100000;
  Type B;
  compensator_r_setting_A 0.000000;
  compensator_x_setting_A 0.000000;
  // comment out the manual tap setting if using automatic control
  tap_pos_A -2;
}
object regulator {
  name "reg_feeder_reg2a";
  from "regxfmr_hvmv11sub2_lsb";
  to "hvmv11sub2_lsb";
  phases A;
  configuration "rcon_feeder_reg2a";
  continuous_rating_A 4201.39;
  emergency_rating_A 5729.17;
}
object regulator_configuration {
  name "rcon_feeder_reg3b";
  connect_type WYE_WYE;
	Control MANUAL; // OUTPUT_VOLTAGE;
  // use these for OUTPUT_VOLTAGE mode
  // band_center 7380.000000;
  // band_width 120.000000;
  // use these for LINE_DROP_COMP mode
  // band_center 123.000000;
  // band_width 2.000000;
  // transducer ratios only apply to LINE_DROP_COMP mode
  current_transducer_ratio 1500.000000;
  power_transducer_ratio 60.000000;
  dwell_time 15.000000;
  raise_taps 16;
  lower_taps 16;
  regulation 0.100000;
  Type B;
  compensator_r_setting_B 0.000000;
  compensator_x_setting_B 0.000000;
  // comment out the manual tap setting if using automatic control
  tap_pos_B -1;
}
object regulator {
  name "reg_feeder_reg3b";
  from "regxfmr_hvmv11sub3_lsb";
  to "hvmv11sub3_lsb";
  phases B;
  configuration "rcon_feeder_reg3b";
  continuous_rating_B 4201.39;
  emergency_rating_B 5729.17;
}
object regulator_configuration {
  name "rcon_vreg2_a";
  connect_type WYE_WYE;
	Control MANUAL; // OUTPUT_VOLTAGE;
  // use these for OUTPUT_VOLTAGE mode
  // band_center 7500.000000;
  // band_width 120.000000;
  // use these for LINE_DROP_COMP mode
  // band_center 125.000000;
  // band_width 2.000000;
  // transducer ratios only apply to LINE_DROP_COMP mode
  current_transducer_ratio 1500.000000;
  power_transducer_ratio 60.000000;
  dwell_time 15.000000;
  raise_taps 16;
  lower_taps 16;
  regulation 0.100000;
  Type B;
  compensator_r_setting_A 0.000000;
  compensator_x_setting_A 0.000000;
  // comment out the manual tap setting if using automatic control
  tap_pos_A -7;
}
object regulator {
  name "reg_vreg2_a";
  from "regxfmr_190-8593";
  to "190-8593";
  phases A;
  configuration "rcon_vreg2_a";
  continuous_rating_A 1527.78;
  emergency_rating_A 2083.33;
}
object regulator_configuration {
  name "rcon_vreg2_b";
  connect_type WYE_WYE;
	Control MANUAL; // OUTPUT_VOLTAGE;
  // use these for OUTPUT_VOLTAGE mode
  // band_center 7500.000000;
  // band_width 120.000000;
  // use these for LINE_DROP_COMP mode
  // band_center 125.000000;
  // band_width 2.000000;
  // transducer ratios only apply to LINE_DROP_COMP mode
  current_transducer_ratio 1500.000000;
  power_transducer_ratio 60.000000;
  dwell_time 15.000000;
  raise_taps 16;
  lower_taps 16;
  regulation 0.100000;
  Type B;
  compensator_r_setting_B 0.000000;
  compensator_x_setting_B 0.000000;
  // comment out the manual tap setting if using automatic control
  tap_pos_B -4;
}
object regulator {
  name "reg_vreg2_b";
  from "regxfmr_190-8593";
  to "190-8593";
  phases B;
  configuration "rcon_vreg2_b";
  continuous_rating_B 1527.78;
  emergency_rating_B 2083.33;
}
object regulator_configuration {
  name "rcon_vreg3_a";
  connect_type WYE_WYE;
	Control MANUAL; // OUTPUT_VOLTAGE;
  // use these for OUTPUT_VOLTAGE mode
  // band_center 7500.000000;
  // band_width 120.000000;
  // use these for LINE_DROP_COMP mode
  // band_center 125.000000;
  // band_width 2.000000;
  // transducer ratios only apply to LINE_DROP_COMP mode
  current_transducer_ratio 1500.000000;
  power_transducer_ratio 60.000000;
  dwell_time 15.000000;
  raise_taps 16;
  lower_taps 16;
  regulation 0.100000;
  Type B;
  compensator_r_setting_A 0.000000;
  compensator_x_setting_A 0.000000;
  // comment out the manual tap setting if using automatic control
  tap_pos_A 5;
}
object regulator {
  name "reg_vreg3_a";
  from "regxfmr_190-8581";
  to "190-8581";
  phases A;
  configuration "rcon_vreg3_a";
  continuous_rating_A 1527.78;
  emergency_rating_A 2083.33;
}
object regulator_configuration {
  name "rcon_feeder_reg1c";
  connect_type WYE_WYE;
	Control MANUAL; // OUTPUT_VOLTAGE;
  // use these for OUTPUT_VOLTAGE mode
  // band_center 7380.000000;
  // band_width 120.000000;
  // use these for LINE_DROP_COMP mode
  // band_center 123.000000;
  // band_width 2.000000;
  // transducer ratios only apply to LINE_DROP_COMP mode
  current_transducer_ratio 1500.000000;
  power_transducer_ratio 60.000000;
  dwell_time 15.000000;
  raise_taps 16;
  lower_taps 16;
  regulation 0.100000;
  Type B;
  compensator_r_setting_C 0.000000;
  compensator_x_setting_C 0.000000;
  // comment out the manual tap setting if using automatic control
  tap_pos_C -3;
}
object regulator {
  name "reg_feeder_reg1c";
  from "regxfmr_hvmv11sub1_lsb";
  to "hvmv11sub1_lsb";
  phases C;
  configuration "rcon_feeder_reg1c";
  continuous_rating_C 4201.39;
  emergency_rating_C 5729.17;
}
object regulator_configuration {
  name "rcon_feeder_reg1a";
  connect_type WYE_WYE;
	Control MANUAL; // OUTPUT_VOLTAGE;
  // use these for OUTPUT_VOLTAGE mode
  // band_center 7380.000000;
  // band_width 120.000000;
  // use these for LINE_DROP_COMP mode
  // band_center 123.000000;
  // band_width 2.000000;
  // transducer ratios only apply to LINE_DROP_COMP mode
  current_transducer_ratio 1500.000000;
  power_transducer_ratio 60.000000;
  dwell_time 15.000000;
  raise_taps 16;
  lower_taps 16;
  regulation 0.100000;
  Type B;
  compensator_r_setting_A 0.000000;
  compensator_x_setting_A 0.000000;
  // comment out the manual tap setting if using automatic control
  tap_pos_A -3;
}
object regulator {
  name "reg_feeder_reg1a";
  from "regxfmr_hvmv11sub1_lsb";
  to "hvmv11sub1_lsb";
  phases A;
  configuration "rcon_feeder_reg1a";
  continuous_rating_A 4201.39;
  emergency_rating_A 5729.17;
}
object regulator_configuration {
  name "rcon_feeder_reg2b";
  connect_type WYE_WYE;
	Control MANUAL; // OUTPUT_VOLTAGE;
  // use these for OUTPUT_VOLTAGE mode
  // band_center 7380.000000;
  // band_width 120.000000;
  // use these for LINE_DROP_COMP mode
  // band_center 123.000000;
  // band_width 2.000000;
  // transducer ratios only apply to LINE_DROP_COMP mode
  current_transducer_ratio 1500.000000;
  power_transducer_ratio 60.000000;
  dwell_time 15.000000;
  raise_taps 16;
  lower_taps 16;
  regulation 0.100000;
  Type B;
  compensator_r_setting_B 0.000000;
  compensator_x_setting_B 0.000000;
  // comment out the manual tap setting if using automatic control
  tap_pos_B -2;
}
object regulator {
  name "reg_feeder_reg2b";
  from "regxfmr_hvmv11sub2_lsb";
  to "hvmv11sub2_lsb";
  phases B;
  configuration "rcon_feeder_reg2b";
  continuous_rating_B 4201.39;
  emergency_rating_B 5729.17;
}
object regulator_configuration {
  name "rcon_feeder_reg3c";
  connect_type WYE_WYE;
	Control MANUAL; // OUTPUT_VOLTAGE;
  // use these for OUTPUT_VOLTAGE mode
  // band_center 7380.000000;
  // band_width 120.000000;
  // use these for LINE_DROP_COMP mode
  // band_center 123.000000;
  // band_width 2.000000;
  // transducer ratios only apply to LINE_DROP_COMP mode
  current_transducer_ratio 1500.000000;
  power_transducer_ratio 60.000000;
  dwell_time 15.000000;
  raise_taps 16;
  lower_taps 16;
  regulation 0.100000;
  Type B;
  compensator_r_setting_C 0.000000;
  compensator_x_setting_C 0.000000;
  // comment out the manual tap setting if using automatic control
  tap_pos_C -2;
}
object regulator {
  name "reg_feeder_reg3c";
  from "regxfmr_hvmv11sub3_lsb";
  to "hvmv11sub3_lsb";
  phases C;
  configuration "rcon_feeder_reg3c";
  continuous_rating_C 4201.39;
  emergency_rating_C 5729.17;
}
object regulator_configuration {
  name "rcon_feeder_reg1b";
  connect_type WYE_WYE;
	Control MANUAL; // OUTPUT_VOLTAGE;
  // use these for OUTPUT_VOLTAGE mode
  // band_center 7380.000000;
  // band_width 120.000000;
  // use these for LINE_DROP_COMP mode
  // band_center 123.000000;
  // band_width 2.000000;
  // transducer ratios only apply to LINE_DROP_COMP mode
  current_transducer_ratio 1500.000000;
  power_transducer_ratio 60.000000;
  dwell_time 15.000000;
  raise_taps 16;
  lower_taps 16;
  regulation 0.100000;
  Type B;
  compensator_r_setting_B 0.000000;
  compensator_x_setting_B 0.000000;
  // comment out the manual tap setting if using automatic control
  tap_pos_B -3;
}
object regulator {
  name "reg_feeder_reg1b";
  from "regxfmr_hvmv11sub1_lsb";
  to "hvmv11sub1_lsb";
  phases B;
  configuration "rcon_feeder_reg1b";
  continuous_rating_B 4201.39;
  emergency_rating_B 5729.17;
}
object regulator_configuration {
  name "rcon_feeder_reg2c";
  connect_type WYE_WYE;
	Control MANUAL; // OUTPUT_VOLTAGE;
  // use these for OUTPUT_VOLTAGE mode
  // band_center 7380.000000;
  // band_width 120.000000;
  // use these for LINE_DROP_COMP mode
  // band_center 123.000000;
  // band_width 2.000000;
  // transducer ratios only apply to LINE_DROP_COMP mode
  current_transducer_ratio 1500.000000;
  power_transducer_ratio 60.000000;
  dwell_time 15.000000;
  raise_taps 16;
  lower_taps 16;
  regulation 0.100000;
  Type B;
  compensator_r_setting_C 0.000000;
  compensator_x_setting_C 0.000000;
  // comment out the manual tap setting if using automatic control
  tap_pos_C -3;
}
object regulator {
  name "reg_feeder_reg2c";
  from "regxfmr_hvmv11sub2_lsb";
  to "hvmv11sub2_lsb";
  phases C;
  configuration "rcon_feeder_reg2c";
  continuous_rating_C 4201.39;
  emergency_rating_C 5729.17;
}
object regulator_configuration {
  name "rcon_vreg4_c";
  connect_type WYE_WYE;
	Control MANUAL; // OUTPUT_VOLTAGE;
  // use these for OUTPUT_VOLTAGE mode
  // band_center 7500.000000;
  // band_width 120.000000;
  // use these for LINE_DROP_COMP mode
  // band_center 125.000000;
  // band_width 2.000000;
  // transducer ratios only apply to LINE_DROP_COMP mode
  current_transducer_ratio 1500.000000;
  power_transducer_ratio 60.000000;
  dwell_time 15.000000;
  raise_taps 16;
  lower_taps 16;
  regulation 0.100000;
  Type B;
  compensator_r_setting_C 0.000000;
  compensator_x_setting_C 0.000000;
  // comment out the manual tap setting if using automatic control
  tap_pos_C -5;
}
object regulator {
  name "reg_vreg4_c";
  from "regxfmr_190-7361";
  to "190-7361";
  phases C;
  configuration "rcon_vreg4_c";
  continuous_rating_C 1527.78;
  emergency_rating_C 2083.33;
}
object regulator_configuration {
  name "rcon_vreg2_c";
  connect_type WYE_WYE;
	Control MANUAL; // OUTPUT_VOLTAGE;
  // use these for OUTPUT_VOLTAGE mode
  // band_center 7500.000000;
  // band_width 120.000000;
  // use these for LINE_DROP_COMP mode
  // band_center 125.000000;
  // band_width 2.000000;
  // transducer ratios only apply to LINE_DROP_COMP mode
  current_transducer_ratio 1500.000000;
  power_transducer_ratio 60.000000;
  dwell_time 15.000000;
  raise_taps 16;
  lower_taps 16;
  regulation 0.100000;
  Type B;
  compensator_r_setting_C 0.000000;
  compensator_x_setting_C 0.000000;
  // comment out the manual tap setting if using automatic control
  tap_pos_C -1;
}
object regulator {
  name "reg_vreg2_c";
  from "regxfmr_190-8593";
  to "190-8593";
  phases C;
  configuration "rcon_vreg2_c";
  continuous_rating_C 1527.78;
  emergency_rating_C 2083.33;
}
object regulator_configuration {
  name "rcon_vreg3_b";
  connect_type WYE_WYE;
	Control MANUAL; // OUTPUT_VOLTAGE;
  // use these for OUTPUT_VOLTAGE mode
  // band_center 7500.000000;
  // band_width 120.000000;
  // use these for LINE_DROP_COMP mode
  // band_center 125.000000;
  // band_width 2.000000;
  // transducer ratios only apply to LINE_DROP_COMP mode
  current_transducer_ratio 1500.000000;
  power_transducer_ratio 60.000000;
  dwell_time 15.000000;
  raise_taps 16;
  lower_taps 16;
  regulation 0.100000;
  Type B;
  compensator_r_setting_B 0.000000;
  compensator_x_setting_B 0.000000;
  // comment out the manual tap setting if using automatic control
  tap_pos_B 5;
}
object regulator {
  name "reg_vreg3_b";
  from "regxfmr_190-8581";
  to "190-8581";
  phases B;
  configuration "rcon_vreg3_b";
  continuous_rating_B 1527.78;
  emergency_rating_B 2083.33;
}
object regulator_configuration {
  name "rcon_vreg4_a";
  connect_type WYE_WYE;
	Control MANUAL; // OUTPUT_VOLTAGE;
  // use these for OUTPUT_VOLTAGE mode
  // band_center 7500.000000;
  // band_width 120.000000;
  // use these for LINE_DROP_COMP mode
  // band_center 125.000000;
  // band_width 2.000000;
  // transducer ratios only apply to LINE_DROP_COMP mode
  current_transducer_ratio 1500.000000;
  power_transducer_ratio 60.000000;
  dwell_time 15.000000;
  raise_taps 16;
  lower_taps 16;
  regulation 0.100000;
  Type B;
  compensator_r_setting_A 0.000000;
  compensator_x_setting_A 0.000000;
  // comment out the manual tap setting if using automatic control
  tap_pos_A -1;
}
object regulator {
  name "reg_vreg4_a";
  from "regxfmr_190-7361";
  to "190-7361";
  phases A;
  configuration "rcon_vreg4_a";
  continuous_rating_A 1527.78;
  emergency_rating_A 2083.33;
}
object regulator_configuration {
  name "rcon_vreg3_c";
  connect_type WYE_WYE;
	Control MANUAL; // OUTPUT_VOLTAGE;
  // use these for OUTPUT_VOLTAGE mode
  // band_center 7500.000000;
  // band_width 120.000000;
  // use these for LINE_DROP_COMP mode
  // band_center 125.000000;
  // band_width 2.000000;
  // transducer ratios only apply to LINE_DROP_COMP mode
  current_transducer_ratio 1500.000000;
  power_transducer_ratio 60.000000;
  dwell_time 15.000000;
  raise_taps 16;
  lower_taps 16;
  regulation 0.100000;
  Type B;
  compensator_r_setting_C 0.000000;
  compensator_x_setting_C 0.000000;
  // comment out the manual tap setting if using automatic control
  tap_pos_C 4;
}
object regulator {
  name "reg_vreg3_c";
  from "regxfmr_190-8581";
  to "190-8581";
  phases C;
  configuration "rcon_vreg3_c";
  continuous_rating_C 1527.78;
  emergency_rating_C 2083.33;
}
object regulator_configuration {
  name "rcon_vreg4_b";
  connect_type WYE_WYE;
	Control MANUAL; // OUTPUT_VOLTAGE;
  // use these for OUTPUT_VOLTAGE mode
  // band_center 7500.000000;
  // band_width 120.000000;
  // use these for LINE_DROP_COMP mode
  // band_center 125.000000;
  // band_width 2.000000;
  // transducer ratios only apply to LINE_DROP_COMP mode
  current_transducer_ratio 1500.000000;
  power_transducer_ratio 60.000000;
  dwell_time 15.000000;
  raise_taps 16;
  lower_taps 16;
  regulation 0.100000;
  Type B;
  compensator_r_setting_B 0.000000;
  compensator_x_setting_B 0.000000;
  // comment out the manual tap setting if using automatic control
  tap_pos_B -4;
}
object regulator {
  name "reg_vreg4_b";
  from "regxfmr_190-7361";
  to "190-7361";
  phases B;
  configuration "rcon_vreg4_b";
  continuous_rating_B 1527.78;
  emergency_rating_B 2083.33;
}
object overhead_line_conductor {
  name "wire_1/0_3w_cs";
  geometric_mean_radius 0.011417;
  diameter 0.398007;
  resistance 0.971519;
  rating.summer.continuous 200.00;
  rating.summer.emergency 200.00;
  rating.winter.continuous 200.00;
  rating.winter.emergency 200.00;
}
object overhead_line_conductor {
  name "wire_1/0_acsr";
  geometric_mean_radius 0.004458;
  diameter 0.398007;
  resistance 1.040999;
  rating.summer.continuous 260.00;
  rating.summer.emergency 260.00;
  rating.winter.continuous 260.00;
  rating.winter.emergency 260.00;
}
object overhead_line_conductor {
  name "wire_4_wpal";
  geometric_mean_radius 0.007000;
  diameter 0.250005;
  resistance 2.459419;
  rating.summer.continuous 150.00;
  rating.summer.emergency 150.00;
  rating.winter.continuous 150.00;
  rating.winter.emergency 150.00;
}
object overhead_line_conductor {
  name "wire_4_acsr";
  geometric_mean_radius 0.004367;
  diameter 0.250005;
  resistance 2.530689;
  rating.summer.continuous 150.00;
  rating.summer.emergency 150.00;
  rating.winter.continuous 150.00;
  rating.winter.emergency 150.00;
}
object overhead_line_conductor {
  name "wire_4_dpx";
  geometric_mean_radius 0.007000;
  diameter 0.250005;
  resistance 2.449900;
  rating.summer.continuous 136.00;
  rating.summer.emergency 136.00;
  rating.winter.continuous 136.00;
  rating.winter.emergency 136.00;
}
object overhead_line_conductor {
  name "wire_2/0_wpal";
  geometric_mean_radius 0.005100;
  diameter 0.447008;
  resistance 0.853001;
  rating.summer.continuous 300.00;
  rating.summer.emergency 300.00;
  rating.winter.continuous 300.00;
  rating.winter.emergency 300.00;
}
object overhead_line_conductor {
  name "wire_397_acsr";
  geometric_mean_radius 0.024000;
  diameter 0.743014;
  resistance 0.256999;
  rating.summer.continuous 630.00;
  rating.summer.emergency 630.00;
  rating.winter.continuous 630.00;
  rating.winter.emergency 630.00;
}
object overhead_line_conductor {
  name "wire_397_aac_treewire";
  geometric_mean_radius 0.024000;
  diameter 0.743014;
  resistance 0.283008;
  rating.summer.continuous 526.00;
  rating.summer.emergency 526.00;
  rating.winter.continuous 526.00;
  rating.winter.emergency 526.00;
}
object overhead_line_conductor {
  name "wire_2_acsr";
  geometric_mean_radius 0.004183;
  diameter 0.316006;
  resistance 1.625700;
  rating.summer.continuous 200.00;
  rating.summer.emergency 200.00;
  rating.winter.continuous 200.00;
  rating.winter.emergency 200.00;
}
object overhead_line_conductor {
  name "wire_2_wpal";
  geometric_mean_radius 0.004183;
  diameter 0.316006;
  resistance 1.690130;
  rating.summer.continuous 155.00;
  rating.summer.emergency 155.00;
  rating.winter.continuous 155.00;
  rating.winter.emergency 155.00;
}
object overhead_line_conductor {
  name "wire_6_wpal";
  geometric_mean_radius 0.003942;
  diameter 0.198004;
  resistance 3.910899;
  rating.summer.continuous 115.00;
  rating.summer.emergency 115.00;
  rating.winter.continuous 115.00;
  rating.winter.emergency 115.00;
}
object overhead_line_conductor {
  name "wire_4_tpx";
  geometric_mean_radius 0.007000;
  diameter 0.250005;
  resistance 2.449900;
  rating.summer.continuous 115.00;
  rating.summer.emergency 115.00;
  rating.winter.continuous 115.00;
  rating.winter.emergency 115.00;
}
object overhead_line_conductor {
  name "wire_1/0_tpx";
  geometric_mean_radius 0.011417;
  diameter 0.398007;
  resistance 0.184000;
  rating.summer.continuous 205.00;
  rating.summer.emergency 205.00;
  rating.winter.continuous 205.00;
  rating.winter.emergency 205.00;
}
object overhead_line_conductor {
  name "wire_4/0_tpx";
  geometric_mean_radius 0.015767;
  diameter 0.563010;
  resistance 0.485760;
  rating.summer.continuous 318.00;
  rating.summer.emergency 318.00;
  rating.winter.continuous 318.00;
  rating.winter.emergency 318.00;
}
object overhead_line_conductor {
  name "wire_2/0_acsr";
  geometric_mean_radius 0.005100;
  diameter 0.447008;
  resistance 0.853001;
  rating.summer.continuous 300.00;
  rating.summer.emergency 300.00;
  rating.winter.continuous 300.00;
  rating.winter.emergency 300.00;
}
object underground_line_conductor {
  name "cncab_1/0_al_15kv_1/3";
  neutral_gmr 0.000819;
  neutral_diameter 0.025197;
  neutral_resistance 4.103827;
  neutral_strands 6;
  conductor_gmr 0.011089;
  conductor_diameter 0.368117;
  conductor_resistance 0.970434;
  outer_diameter 1.078760;
  insulation_relative_permitivitty 2.30;
}
object line_spacing {
  name "spc_3ph_h-4_acsr2_acsr2_acsr4_wpal_ABCN";
  distance_AB 3.2016;
  distance_AC 4.0001;
  distance_AN 5.5903;
  distance_AE 32.0006;
  distance_BC 2.5000;
  distance_BN 7.0001;
  distance_BE 34.0006;
  distance_CN 5.2202;
  distance_CE 32.0006;
  distance_NE 27.0005;
}
object line_spacing {
  name "spc_1ph-4_acsrxx1/0_tpx_AN";
  distance_AN 7.5665;
  distance_AE 34.5006;
  distance_NE 27.0005;
}
object line_spacing {
  name "spc_1ph-x4_wpalx4_wpal_BN";
  distance_BN 7.5665;
  distance_BE 34.5006;
  distance_NE 27.0005;
}
object line_spacing {
  name "spc_1ph-x4_wpalx1/0_tpx_BN";
  distance_BN 7.5665;
  distance_BE 34.5006;
  distance_NE 27.0005;
}
object line_spacing {
  name "spc_3ph_h-4_wpal4_wpal4_wpal1/0_tpx_ABCN";
  distance_AB 3.2016;
  distance_AC 4.0001;
  distance_AN 5.5903;
  distance_AE 32.0006;
  distance_BC 2.5000;
  distance_BN 7.0001;
  distance_BE 34.0006;
  distance_CN 5.2202;
  distance_CE 32.0006;
  distance_NE 27.0005;
}
object line_spacing {
  name "spc_3ph_h-4_acsr4_acsr4_acsr4_wpal_ABCN";
  distance_AB 3.2016;
  distance_AC 4.0001;
  distance_AN 5.5903;
  distance_AE 32.0006;
  distance_BC 2.5000;
  distance_BN 7.0001;
  distance_BE 34.0006;
  distance_CN 5.2202;
  distance_CE 32.0006;
  distance_NE 27.0005;
}
object line_spacing {
  name "spc_3ph_h-2/0_acsr2/0_acsr2/0_acsr2_acsr_ABCN";
  distance_AB 3.2016;
  distance_AC 4.0001;
  distance_AN 5.5903;
  distance_AE 32.0006;
  distance_BC 2.5000;
  distance_BN 7.0001;
  distance_BE 34.0006;
  distance_CN 5.2202;
  distance_CE 32.0006;
  distance_NE 27.0005;
}
object line_spacing {
  name "spc_1ph-x4_wpalx2_acsr_BN";
  distance_BN 7.5665;
  distance_BE 34.5006;
  distance_NE 27.0005;
}
object line_spacing {
  name "spc_1ph-xx6_wpal6_wpal_CN";
  distance_CN 7.5665;
  distance_CE 34.5006;
  distance_NE 27.0005;
}
object line_spacing {
  name "spc_1ph-x4_acsrx4_wpal_BN";
  distance_BN 7.5665;
  distance_BE 34.5006;
  distance_NE 27.0005;
}
object line_spacing {
  name "spc_1ph-xx4_wpal4_wpal_CN";
  distance_CN 7.5665;
  distance_CE 34.5006;
  distance_NE 27.0005;
}
object line_spacing {
  name "spc_1ph-2_acsrxx4_wpal_AN";
  distance_AN 7.5665;
  distance_AE 34.5006;
  distance_NE 27.0005;
}
object line_spacing {
  name "spc_1ph-x4_acsrx1/0_tpx_BN";
  distance_BN 7.5665;
  distance_BE 34.5006;
  distance_NE 27.0005;
}
object line_spacing {
  name "spc_1ph-x2_acsrx1/0_tpx_BN";
  distance_BN 7.5665;
  distance_BE 34.5006;
  distance_NE 27.0005;
}
object line_spacing {
  name "spc_1ph-x4_acsrx4_tpx_BN";
  distance_BN 7.5665;
  distance_BE 34.5006;
  distance_NE 27.0005;
}
object line_spacing {
  name "spc_3ph_h-2_acsr2_acsr4_acsr4_acsr_ABCN";
  distance_AB 3.2016;
  distance_AC 4.0001;
  distance_AN 5.5903;
  distance_AE 32.0006;
  distance_BC 2.5000;
  distance_BN 7.0001;
  distance_BE 34.0006;
  distance_CN 5.2202;
  distance_CE 32.0006;
  distance_NE 27.0005;
}
object line_spacing {
  name "spc_3ph_h-397_acsr397_acsr397_acsr2/0_wpal_ABCN";
  distance_AB 3.2016;
  distance_AC 4.0001;
  distance_AN 5.5903;
  distance_AE 32.0006;
  distance_BC 2.5000;
  distance_BN 7.0001;
  distance_BE 34.0006;
  distance_CN 5.2202;
  distance_CE 32.0006;
  distance_NE 27.0005;
}
object line_spacing {
  name "spc_1ph-x4_acsrx1/0_3w_cs_BN";
  distance_BN 7.5665;
  distance_BE 34.5006;
  distance_NE 27.0005;
}
object line_spacing {
  name "spc_1p_1/0_axnj_db_A";
  distance_AE -4.0027;
}
object line_spacing {
  name "spc_1p_1/0_axnj_db_B";
  distance_BE -4.0027;
}
object line_spacing {
  name "spc_1p_1/0_axnj_db_C";
  distance_CE -4.0027;
}
object line_spacing {
  name "spc_1ph-2_acsrxx4_acsr_AN";
  distance_AN 7.5665;
  distance_AE 34.5006;
  distance_NE 27.0005;
}
object line_spacing {
  name "spc_1ph-xx4_acsr1/0_acsr_CN";
  distance_CN 7.5665;
  distance_CE 34.5006;
  distance_NE 27.0005;
}
object line_spacing {
  name "spc_1ph-2_acsrxx2_acsr_AN";
  distance_AN 7.5665;
  distance_AE 34.5006;
  distance_NE 27.0005;
}
object line_spacing {
  name "spc_1ph-xx4_wpal4_acsr_CN";
  distance_CN 7.5665;
  distance_CE 34.5006;
  distance_NE 27.0005;
}
object line_spacing {
  name "spc_3p_1/0_axnj_db_ABC";
  distance_AB 0.5000;
  distance_AC 1.0000;
  distance_AE -4.0027;
  distance_BC 0.5000;
  distance_BE -4.0027;
  distance_CE -4.0027;
}
object line_spacing {
  name "spc_1ph-4_acsrxx4_acsr_AN";
  distance_AN 7.5665;
  distance_AE 34.5006;
  distance_NE 27.0005;
}
object line_spacing {
  name "spc_1ph-2_acsrxx4/0_tpx_AN";
  distance_AN 7.5665;
  distance_AE 34.5006;
  distance_NE 27.0005;
}
object line_spacing {
  name "spc_1ph-x4_acsrx4_dpx_BN";
  distance_BN 7.5665;
  distance_BE 34.5006;
  distance_NE 27.0005;
}
object line_spacing {
  name "spc_1ph-xx4_acsr4_tpx_CN";
  distance_CN 7.5665;
  distance_CE 34.5006;
  distance_NE 27.0005;
}
object line_spacing {
  name "spc_1ph-4_acsrxx6_wpal_AN";
  distance_AN 7.5665;
  distance_AE 34.5006;
  distance_NE 27.0005;
}
object line_spacing {
  name "spc_1ph-x4_acsrx2_wpal_BN";
  distance_BN 7.5665;
  distance_BE 34.5006;
  distance_NE 27.0005;
}
object line_spacing {
  name "spc_1ph-x4_wpalx4_acsr_BN";
  distance_BN 7.5665;
  distance_BE 34.5006;
  distance_NE 27.0005;
}
object line_spacing {
  name "spc_1ph-xx4_acsr4_acsr_CN";
  distance_CN 7.5665;
  distance_CE 34.5006;
  distance_NE 27.0005;
}
object line_spacing {
  name "spc_1ph-xx4_wpal1/0_tpx_CN";
  distance_CN 7.5665;
  distance_CE 34.5006;
  distance_NE 27.0005;
}
object line_spacing {
  name "spc_2ph_h-2_acsrx2_acsr2_acsr_ACN";
  distance_AC 4.0001;
  distance_AN 5.5903;
  distance_AE 32.0006;
  distance_CN 5.2202;
  distance_CE 32.0006;
  distance_NE 27.0005;
}
object line_spacing {
  name "spc_3ph_h-4_wpal4_wpal4_wpal4_wpal_ABCN";
  distance_AB 3.2016;
  distance_AC 4.0001;
  distance_AN 5.5903;
  distance_AE 32.0006;
  distance_BC 2.5000;
  distance_BN 7.0001;
  distance_BE 34.0006;
  distance_CN 5.2202;
  distance_CE 32.0006;
  distance_NE 27.0005;
}
object line_spacing {
  name "spc_1ph-2_acsrxx1/0_tpx_AN";
  distance_AN 7.5665;
  distance_AE 34.5006;
  distance_NE 27.0005;
}
object line_spacing {
  name "spc_1ph-x2_acsrx1/0_3w_cs_BN";
  distance_BN 7.5665;
  distance_BE 34.5006;
  distance_NE 27.0005;
}
object line_spacing {
  name "spc_3ph_h-2/0_acsr2/0_acsr2/0_acsr4_acsr_ABCN";
  distance_AB 3.2016;
  distance_AC 4.0001;
  distance_AN 5.5903;
  distance_AE 32.0006;
  distance_BC 2.5000;
  distance_BN 7.0001;
  distance_BE 34.0006;
  distance_CN 5.2202;
  distance_CE 32.0006;
  distance_NE 27.0005;
}
object line_spacing {
  name "spc_1ph-4_wpalxx2_wpal_AN";
  distance_AN 7.5665;
  distance_AE 34.5006;
  distance_NE 27.0005;
}
object line_spacing {
  name "spc_1ph-x2_acsrx4_tpx_BN";
  distance_BN 7.5665;
  distance_BE 34.5006;
  distance_NE 27.0005;
}
object line_spacing {
  name "spc_3ph-69kv_397_treewire_ABCN";
  distance_AB 6.4186;
  distance_AC 10.0067;
  distance_AN 16.0809;
  distance_AE 39.9942;
  distance_BC 6.3930;
  distance_BN 11.2718;
  distance_BE 45.0139;
  distance_CN 6.1886;
  distance_CE 50.0009;
  distance_NE 56.0050;
}
object line_spacing {
  name "spc_1ph-x2_acsrx4_acsr_BN";
  distance_BN 7.5665;
  distance_BE 34.5006;
  distance_NE 27.0005;
}
object line_spacing {
  name "spc_1ph-4_wpalxx4_acsr_AN";
  distance_AN 7.5665;
  distance_AE 34.5006;
  distance_NE 27.0005;
}
object line_spacing {
  name "spc_1ph-2_wpalxx2_wpal_AN";
  distance_AN 7.5665;
  distance_AE 34.5006;
  distance_NE 27.0005;
}
object line_spacing {
  name "spc_1ph-4_acsrxx2_acsr_AN";
  distance_AN 7.5665;
  distance_AE 34.5006;