clock {
	timezone EST+5EDT;
	starttime '2000-01-01 0:00:00';
	stoptime '2000-01-01 0:00:03';
}

module powerflow {
	solver_method NR;
	line_capacitance TRUE;
};

module generators;

module tape;

module reliability {
	report_event_log false;
};

//#set relax_naming_rules=1
//#set profiler=1

// parser didn't like this 🤷‍♂️
//#ifdef WANT_VI_DUMP
//#endif

object voltdump {
	name OBJECT_1;
	filename ieee9500bal_volt.csv;
	mode POLAR;
}

object currdump {
	name OBJECT_2;
	filename ieee9500bal_curr.csv;
	mode POLAR;
}

object regulator_configuration {
	name "rcon_feeder_reg3a";
	connect_type WYE_WYE;
	Control MANUAL;
	current_transducer_ratio 1500.000000;
	power_transducer_ratio 60.000000;
	dwell_time 15.000000;
	raise_taps 16;
	lower_taps 16;
	regulation 0.100000;
	Type B;
	compensator_r_setting_A 0.000000;
	compensator_x_setting_A 0.000000;
	tap_pos_A -1;
}

object regulator_configuration {
	name "rcon_feeder_reg2a";
	connect_type WYE_WYE;
	Control MANUAL;
	current_transducer_ratio 1500.000000;
	power_transducer_ratio 60.000000;
	dwell_time 15.000000;
	raise_taps 16;
	lower_taps 16;
	regulation 0.100000;
	Type B;
	compensator_r_setting_A 0.000000;
	compensator_x_setting_A 0.000000;
	tap_pos_A -2;
}

object regulator_configuration {
	name "rcon_feeder_reg3b";
	connect_type WYE_WYE;
	Control MANUAL;
	current_transducer_ratio 1500.000000;
	power_transducer_ratio 60.000000;
	dwell_time 15.000000;
	raise_taps 16;
	lower_taps 16;
	regulation 0.100000;
	Type B;
	compensator_r_setting_B 0.000000;
	compensator_x_setting_B 0.000000;
	tap_pos_B 0;
}

object regulator_configuration {
	name "rcon_vreg2_a";
	connect_type WYE_WYE;
	Control MANUAL;
	current_transducer_ratio 1500.000000;
	power_transducer_ratio 60.000000;
	dwell_time 15.000000;
	raise_taps 16;
	lower_taps 16;
	regulation 0.100000;
	Type B;
	compensator_r_setting_A 0.000000;
	compensator_x_setting_A 0.000000;
	tap_pos_A -5;
}

object regulator_configuration {
	name "rcon_vreg2_b";
	connect_type WYE_WYE;
	Control MANUAL;
	current_transducer_ratio 1500.000000;
	power_transducer_ratio 60.000000;
	dwell_time 15.000000;
	raise_taps 16;
	lower_taps 16;
	regulation 0.100000;
	Type B;
	compensator_r_setting_B 0.000000;
	compensator_x_setting_B 0.000000;
	tap_pos_B -5;
}

object regulator_configuration {
	name "rcon_vreg3_a";
	connect_type WYE_WYE;
	Control MANUAL;
	current_transducer_ratio 1500.000000;
	power_transducer_ratio 60.000000;
	dwell_time 15.000000;
	raise_taps 16;
	lower_taps 16;
	regulation 0.100000;
	Type B;
	compensator_r_setting_A 0.000000;
	compensator_x_setting_A 0.000000;
	tap_pos_A 5;
}

object regulator_configuration {
	name "rcon_feeder_reg1c";
	connect_type WYE_WYE;
	Control MANUAL;
	current_transducer_ratio 1500.000000;
	power_transducer_ratio 60.000000;
	dwell_time 15.000000;
	raise_taps 16;
	lower_taps 16;
	regulation 0.100000;
	Type B;
	compensator_r_setting_C 0.000000;
	compensator_x_setting_C 0.000000;
	tap_pos_C -3;
}

object regulator_configuration {
	name "rcon_feeder_reg1a";
	connect_type WYE_WYE;
	Control MANUAL;
	current_transducer_ratio 1500.000000;
	power_transducer_ratio 60.000000;
	dwell_time 15.000000;
	raise_taps 16;
	lower_taps 16;
	regulation 0.100000;
	Type B;
	compensator_r_setting_A 0.000000;
	compensator_x_setting_A 0.000000;
	tap_pos_A -3;
}

object regulator_configuration {
	name "rcon_feeder_reg2b";
	connect_type WYE_WYE;
	Control MANUAL;
	current_transducer_ratio 1500.000000;
	power_transducer_ratio 60.000000;
	dwell_time 15.000000;
	raise_taps 16;
	lower_taps 16;
	regulation 0.100000;
	Type B;
	compensator_r_setting_B 0.000000;
	compensator_x_setting_B 0.000000;
	tap_pos_B -2;
}

object regulator_configuration {
	name "rcon_feeder_reg3c";
	connect_type WYE_WYE;
	Control MANUAL;
	current_transducer_ratio 1500.000000;
	power_transducer_ratio 60.000000;
	dwell_time 15.000000;
	raise_taps 16;
	lower_taps 16;
	regulation 0.100000;
	Type B;
	compensator_r_setting_C 0.000000;
	compensator_x_setting_C 0.000000;
	tap_pos_C -1;
}

object regulator_configuration {
	name "rcon_feeder_reg1b";
	connect_type WYE_WYE;
	Control MANUAL;
	current_transducer_ratio 1500.000000;
	power_transducer_ratio 60.000000;
	dwell_time 15.000000;
	raise_taps 16;
	lower_taps 16;
	regulation 0.100000;
	Type B;
	compensator_r_setting_B 0.000000;
	compensator_x_setting_B 0.000000;
	tap_pos_B -3;
}

object regulator_configuration {
	name "rcon_feeder_reg2c";
	connect_type WYE_WYE;
	Control MANUAL;
	current_transducer_ratio 1500.000000;
	power_transducer_ratio 60.000000;
	dwell_time 15.000000;
	raise_taps 16;
	lower_taps 16;
	regulation 0.100000;
	Type B;
	compensator_r_setting_C 0.000000;
	compensator_x_setting_C 0.000000;
	tap_pos_C -2;
}

object regulator_configuration {
	name "rcon_vreg4_c";
	connect_type WYE_WYE;
	Control MANUAL;
	current_transducer_ratio 1500.000000;
	power_transducer_ratio 60.000000;
	dwell_time 15.000000;
	raise_taps 16;
	lower_taps 16;
	regulation 0.100000;
	Type B;
	compensator_r_setting_C 0.000000;
	compensator_x_setting_C 0.000000;
	tap_pos_C -4;
}

object regulator_configuration {
	name "rcon_vreg2_c";
	connect_type WYE_WYE;
	Control MANUAL;
	current_transducer_ratio 1500.000000;
	power_transducer_ratio 60.000000;
	dwell_time 15.000000;
	raise_taps 16;
	lower_taps 16;
	regulation 0.100000;
	Type B;
	compensator_r_setting_C 0.000000;
	compensator_x_setting_C 0.000000;
	tap_pos_C -2;
}

object regulator_configuration {
	name "rcon_vreg3_b";
	connect_type WYE_WYE;
	Control MANUAL;
	current_transducer_ratio 1500.000000;
	power_transducer_ratio 60.000000;
	dwell_time 15.000000;
	raise_taps 16;
	lower_taps 16;
	regulation 0.100000;
	Type B;
	compensator_r_setting_B 0.000000;
	compensator_x_setting_B 0.000000;
	tap_pos_B 5;
}

object regulator_configuration {
	name "rcon_vreg4_a";
	connect_type WYE_WYE;
	Control MANUAL;
	current_transducer_ratio 1500.000000;
	power_transducer_ratio 60.000000;
	dwell_time 15.000000;
	raise_taps 16;
	lower_taps 16;
	regulation 0.100000;
	Type B;
	compensator_r_setting_A 0.000000;
	compensator_x_setting_A 0.000000;
	tap_pos_A -3;
}

object regulator_configuration {
	name "rcon_vreg3_c";
	connect_type WYE_WYE;
	Control MANUAL;
	current_transducer_ratio 1500.000000;
	power_transducer_ratio 60.000000;
	dwell_time 15.000000;
	raise_taps 16;
	lower_taps 16;
	regulation 0.100000;
	Type B;
	compensator_r_setting_C 0.000000;
	compensator_x_setting_C 0.000000;
	tap_pos_C 4;
}

object regulator_configuration {
	name "rcon_vreg4_b";
	connect_type WYE_WYE;
	Control MANUAL;
	current_transducer_ratio 1500.000000;
	power_transducer_ratio 60.000000;
	dwell_time 15.000000;
	raise_taps 16;
	lower_taps 16;
	regulation 0.100000;
	Type B;
	compensator_r_setting_B 0.000000;
	compensator_x_setting_B 0.000000;
	tap_pos_B -4;
}

object transformer_configuration {
	name "xcon_ct100B";
	power_rating 100.000;
	primary_voltage 7200.000;
	secondary_voltage 120.000;
	connect_type SINGLE_PHASE_CENTER_TAPPED;
	impedance 0.00600000+0.0136000j;
	impedance1 0.0120000+0.00680000j;
	impedance2 0.0120000+0.00680000j;
	shunt_reactance 200.000000;
	shunt_resistance 500.000000;
}

object transformer_configuration {
	name "xcon_ct250A";
	power_rating 250.000;
	primary_voltage 7200.000;
	secondary_voltage 120.000;
	connect_type SINGLE_PHASE_CENTER_TAPPED;
	impedance 0.00600000+0.0136000j;
	impedance1 0.0120000+0.00680000j;
	impedance2 0.0120000+0.00680000j;
	shunt_reactance 200.000000;
	shunt_resistance 500.000000;
}

object transformer_configuration {
	name "xcon_ct250B";
	power_rating 250.000;
	primary_voltage 7200.000;
	secondary_voltage 120.000;
	connect_type SINGLE_PHASE_CENTER_TAPPED;
	impedance 0.00600000+0.0136000j;
	impedance1 0.0120000+0.00680000j;
	impedance2 0.0120000+0.00680000j;
	shunt_reactance 200.000000;
	shunt_resistance 500.000000;
}

object transformer_configuration {
	name "xcon_ct250C";
	power_rating 250.000;
	primary_voltage 7200.000;
	secondary_voltage 120.000;
	connect_type SINGLE_PHASE_CENTER_TAPPED;
	impedance 0.00600000+0.0136000j;
	impedance1 0.0120000+0.00680000j;
	impedance2 0.0120000+0.00680000j;
	shunt_reactance 200.000000;
	shunt_resistance 500.000000;
}

object transformer_configuration {
	name "xcon_ct25A";
	power_rating 25.000;
	primary_voltage 7200.000;
	secondary_voltage 120.000;
	connect_type SINGLE_PHASE_CENTER_TAPPED;
	impedance 0.00600000+0.0136000j;
	impedance1 0.0120000+0.00680000j;
	impedance2 0.0120000+0.00680000j;
	shunt_reactance 200.000000;
	shunt_resistance 500.000000;
}

object transformer_configuration {
	name "xcon_ct25B";
	power_rating 25.000;
	primary_voltage 7200.000;
	secondary_voltage 120.000;
	connect_type SINGLE_PHASE_CENTER_TAPPED;
	impedance 0.00600000+0.0136000j;
	impedance1 0.0120000+0.00680000j;
	impedance2 0.0120000+0.00680000j;
	shunt_reactance 200.000000;
	shunt_resistance 500.000000;
}

object transformer_configuration {
	name "xcon_ct25C";
	power_rating 25.000;
	primary_voltage 7200.000;
	secondary_voltage 120.000;
	connect_type SINGLE_PHASE_CENTER_TAPPED;
	impedance 0.00600000+0.0136000j;
	impedance1 0.0120000+0.00680000j;
	impedance2 0.0120000+0.00680000j;
	shunt_reactance 200.000000;
	shunt_resistance 500.000000;
}

object transformer_configuration {
	name "xcon_ct75A";
	power_rating 75.000;
	primary_voltage 7200.000;
	secondary_voltage 120.000;
	connect_type SINGLE_PHASE_CENTER_TAPPED;
	impedance 0.00600000+0.0136000j;
	impedance1 0.0120000+0.00680000j;
	impedance2 0.0120000+0.00680000j;
	shunt_reactance 200.000000;
	shunt_resistance 500.000000;
}

object transformer_configuration {
	name "xcon_ct75B";
	power_rating 75.000;
	primary_voltage 7200.000;
	secondary_voltage 120.000;
	connect_type SINGLE_PHASE_CENTER_TAPPED;
	impedance 0.00600000+0.0136000j;
	impedance1 0.0120000+0.00680000j;
	impedance2 0.0120000+0.00680000j;
	shunt_reactance 200.000000;
	shunt_resistance 500.000000;
}

object transformer_configuration {
	name "xcon_ct75C";
	power_rating 75.000;
	primary_voltage 7200.000;
	secondary_voltage 120.000;
	connect_type SINGLE_PHASE_CENTER_TAPPED;
	impedance 0.00600000+0.0136000j;
	impedance1 0.0120000+0.00680000j;
	impedance2 0.0120000+0.00680000j;
	shunt_reactance 200.000000;
	shunt_resistance 500.000000;
}

object transformer_configuration {
	name "xcon_ct50A";
	power_rating 50.000;
	primary_voltage 7200.000;
	secondary_voltage 120.000;
	connect_type SINGLE_PHASE_CENTER_TAPPED;
	impedance 0.00600000+0.0136000j;
	impedance1 0.0120000+0.00680000j;
	impedance2 0.0120000+0.00680000j;
	shunt_reactance 200.000000;
	shunt_resistance 500.000000;
}

object transformer_configuration {
	name "xcon_ct50B";
	power_rating 50.000;
	primary_voltage 7200.000;
	secondary_voltage 120.000;
	connect_type SINGLE_PHASE_CENTER_TAPPED;
	impedance 0.00600000+0.0136000j;
	impedance1 0.0120000+0.00680000j;
	impedance2 0.0120000+0.00680000j;
	shunt_reactance 200.000000;
	shunt_resistance 500.000000;
}

object transformer_configuration {
	name "xcon_ct50C";
	power_rating 50.000;
	primary_voltage 7200.000;
	secondary_voltage 120.000;
	connect_type SINGLE_PHASE_CENTER_TAPPED;
	impedance 0.00600000+0.0136000j;
	impedance1 0.0120000+0.00680000j;
	impedance2 0.0120000+0.00680000j;
	shunt_reactance 200.000000;
	shunt_resistance 500.000000;
}

object transformer_configuration {
	name "xcon_ct5A";
	power_rating 5.000;
	primary_voltage 7200.000;
	secondary_voltage 120.000;
	connect_type SINGLE_PHASE_CENTER_TAPPED;
	impedance 0.00600000+0.0136000j;
	impedance1 0.0120000+0.00680000j;
	impedance2 0.0120000+0.00680000j;
	shunt_reactance 200.000000;
	shunt_resistance 500.000000;
}

object transformer_configuration {
	name "xcon_ct5B";
	power_rating 5.000;
	primary_voltage 7200.000;
	secondary_voltage 120.000;
	connect_type SINGLE_PHASE_CENTER_TAPPED;
	impedance 0.00600000+0.0136000j;
	impedance1 0.0120000+0.00680000j;
	impedance2 0.0120000+0.00680000j;
	shunt_reactance 200.000000;
	shunt_resistance 500.000000;
}

object transformer_configuration {
	name "xcon_ct5C";
	power_rating 5.000;
	primary_voltage 7200.000;
	secondary_voltage 120.000;
	connect_type SINGLE_PHASE_CENTER_TAPPED;
	impedance 0.00600000+0.0136000j;
	impedance1 0.0120000+0.00680000j;
	impedance2 0.0120000+0.00680000j;
	shunt_reactance 200.000000;
	shunt_resistance 500.000000;
}

object transformer_configuration {
	name "xcon_ct15A";
	power_rating 15.000;
	primary_voltage 7200.000;
	secondary_voltage 120.000;
	connect_type SINGLE_PHASE_CENTER_TAPPED;
	impedance 0.00600000+0.0136000j;
	impedance1 0.0120000+0.00680000j;
	impedance2 0.0120000+0.00680000j;
	shunt_reactance 200.000000;
	shunt_resistance 500.000000;
}

object transformer_configuration {
	name "xcon_ct15B";
	power_rating 15.000;
	primary_voltage 7200.000;
	secondary_voltage 120.000;
	connect_type SINGLE_PHASE_CENTER_TAPPED;
	impedance 0.00600000+0.0136000j;
	impedance1 0.0120000+0.00680000j;
	impedance2 0.0120000+0.00680000j;
	shunt_reactance 200.000000;
	shunt_resistance 500.000000;
}

object transformer_configuration {
	name "xcon_ct15C";
	power_rating 15.000;
	primary_voltage 7200.000;
	secondary_voltage 120.000;
	connect_type SINGLE_PHASE_CENTER_TAPPED;
	impedance 0.00600000+0.0136000j;
	impedance1 0.0120000+0.00680000j;
	impedance2 0.0120000+0.00680000j;
	shunt_reactance 200.000000;
	shunt_resistance 500.000000;
}

object transformer_configuration {
	name "xcon_ct37A";
	power_rating 37.500;
	primary_voltage 7200.000;
	secondary_voltage 120.000;
	connect_type SINGLE_PHASE_CENTER_TAPPED;
	impedance 0.00600000+0.0136000j;
	impedance1 0.0120000+0.00680000j;
	impedance2 0.0120000+0.00680000j;
	shunt_reactance 200.000000;
	shunt_resistance 500.000000;
}

object transformer_configuration {
	name "xcon_ct37B";
	power_rating 37.500;
	primary_voltage 7200.000;
	secondary_voltage 120.000;
	connect_type SINGLE_PHASE_CENTER_TAPPED;
	impedance 0.00600000+0.0136000j;
	impedance1 0.0120000+0.00680000j;
	impedance2 0.0120000+0.00680000j;
	shunt_reactance 200.000000;
	shunt_resistance 500.000000;
}

object transformer_configuration {
	name "xcon_ct37C";
	power_rating 37.500;
	primary_voltage 7200.000;
	secondary_voltage 120.000;
	connect_type SINGLE_PHASE_CENTER_TAPPED;
	impedance 0.00600000+0.0136000j;
	impedance1 0.0120000+0.00680000j;
	impedance2 0.0120000+0.00680000j;
	shunt_reactance 200.000000;
	shunt_resistance 500.000000;
}

object transformer_configuration {
	name "xcon_ct10A";
	power_rating 10.000;
	primary_voltage 7200.000;
	secondary_voltage 120.000;
	connect_type SINGLE_PHASE_CENTER_TAPPED;
	impedance 0.00600000+0.0136000j;
	impedance1 0.0120000+0.00680000j;
	impedance2 0.0120000+0.00680000j;
	shunt_reactance 200.000000;
	shunt_resistance 500.000000;
}

object transformer_configuration {
	name "xcon_ct10B";
	power_rating 10.000;
	primary_voltage 7200.000;
	secondary_voltage 120.000;
	connect_type SINGLE_PHASE_CENTER_TAPPED;
	impedance 0.00600000+0.0136000j;
	impedance1 0.0120000+0.00680000j;
	impedance2 0.0120000+0.00680000j;
	shunt_reactance 200.000000;
	shunt_resistance 500.000000;
}

object transformer_configuration {
	name "xcon_ct10C";
	power_rating 10.000;
	primary_voltage 7200.000;
	secondary_voltage 120.000;
	connect_type SINGLE_PHASE_CENTER_TAPPED;
	impedance 0.00600000+0.0136000j;
	impedance1 0.0120000+0.00680000j;
	impedance2 0.0120000+0.00680000j;
	shunt_reactance 200.000000;
	shunt_resistance 500.000000;
}

object transformer_configuration {
	name "xcon_1089-dies1";
	connect_type WYE_WYE;
	primary_voltage 12470.000;
	secondary_voltage 480.000;
	power_rating 750.000;
	resistance 0.004000;
	reactance 0.057500;
}

object transformer_configuration {
	name "xcon_1089-lng1";
	connect_type WYE_WYE;
	primary_voltage 12470.000;
	secondary_voltage 480.000;
	power_rating 2000.000;
	resistance 0.004000;
	reactance 0.057500;
}

object transformer_configuration {
	name "xcon_1209-wt123";
	connect_type WYE_WYE;
	primary_voltage 12470.000;
	secondary_voltage 480.000;
	power_rating 250.000;
	resistance 0.004000;
	reactance 0.057500;
}

object transformer_configuration {
	name "xcon_hvmv69_11sub3";
	connect_type WYE_WYE;
	primary_voltage 69000.000;
	secondary_voltage 12470.000;
	power_rating 20000.000;
	resistance 0.013400;
	reactance 0.079400;
}

object transformer_configuration {
	name "xcon_hvmv69_11sub2";
	connect_type WYE_WYE;
	primary_voltage 69000.000;
	secondary_voltage 12470.000;
	power_rating 20000.000;
	resistance 0.013400;
	reactance 0.079400;
}

object transformer_configuration {
	name "xcon_hvmv115_69sub";
	connect_type DELTA_GWYE;
	primary_voltage 115000.000;
	secondary_voltage 69000.000;
	power_rating 75000.000;
	resistance 0.013400;
	reactance 0.070500;
}

object transformer_configuration {
	name "xcon_hvmv69_11sub1";
	connect_type WYE_WYE;
	primary_voltage 69000.000;
	secondary_voltage 12470.000;
	power_rating 20000.000;
	resistance 0.013400;
	reactance 0.079400;
}

object transformer_configuration {
	name "xcon_2001-mt123";
	connect_type WYE_WYE;
	primary_voltage 12470.000;
	secondary_voltage 480.000;
	power_rating 750.000;
	resistance 0.004000;
	reactance 0.057500;
}

object transformer_configuration {
	name "xcon_1069-mt1";
	connect_type WYE_WYE;
	primary_voltage 12470.000;
	secondary_voltage 480.000;
	power_rating 300.000;
	resistance 0.004000;
	reactance 0.057500;
}

object transformer_configuration {
	name "xcon_1142-lng1";
	connect_type WYE_WYE;
	primary_voltage 12470.000;
	secondary_voltage 480.000;
	power_rating 150.000;
	resistance 0.004000;
	reactance 0.057500;
}

object transformer_configuration {
	name "xcon_2001-ess12";
	connect_type WYE_WYE;
	primary_voltage 12470.000;
	secondary_voltage 480.000;
	power_rating 750.000;
	resistance 0.004000;
	reactance 0.057500;
}

object transformer_configuration {
	name "xcon_1209-dies1";
	connect_type WYE_WYE;
	primary_voltage 12470.000;
	secondary_voltage 480.000;
	power_rating 750.000;
	resistance 0.004000;
	reactance 0.057500;
}

object overhead_line_conductor {
	name "wire_1/0_3w_cs";
	geometric_mean_radius 0.011417;
	diameter 0.398000;
	resistance 0.971519;
	rating.summer.continuous 200.00;
	rating.summer.emergency 200.00;
	rating.winter.continuous 200.00;
	rating.winter.emergency 200.00;
}

object overhead_line_conductor {
	name "wire_1/0_acsr";
	geometric_mean_radius 0.004458;
	diameter 0.398000;
	resistance 1.040999;
	rating.summer.continuous 260.00;
	rating.summer.emergency 260.00;
	rating.winter.continuous 260.00;
	rating.winter.emergency 260.00;
}

object overhead_line_conductor {
	name "wire_4_wpal";
	geometric_mean_radius 0.007000;
	diameter 0.250000;
	resistance 2.459419;
	rating.summer.continuous 150.00;
	rating.summer.emergency 150.00;
	rating.winter.continuous 150.00;
	rating.winter.emergency 150.00;
}

object overhead_line_conductor {
	name "wire_4_acsr";
	geometric_mean_radius 0.004367;
	diameter 0.250000;
	resistance 2.530689;
	rating.summer.continuous 150.00;
	rating.summer.emergency 150.00;
	rating.winter.continuous 150.00;
	rating.winter.emergency 150.00;
}

object overhead_line_conductor {
	name "wire_4_dpx";
	geometric_mean_radius 0.007000;
	diameter 0.250000;
	resistance 2.449900;
	rating.summer.continuous 136.00;
	rating.summer.emergency 136.00;
	rating.winter.continuous 136.00;
	rating.winter.emergency 136.00;
}

object overhead_line_conductor {
	name "wire_2/0_wpal";
	geometric_mean_radius 0.005100;
	diameter 0.447000;
	resistance 0.853001;
	rating.summer.continuous 300.00;
	rating.summer.emergency 300.00;
	rating.winter.continuous 300.00;
	rating.winter.emergency 300.00;
}

object overhead_line_conductor {
	name "wire_397_acsr";
	geometric_mean_radius 0.024000;
	diameter 0.743000;
	resistance 0.256999;
	rating.summer.continuous 630.00;
	rating.summer.emergency 630.00;
	rating.winter.continuous 630.00;
	rating.winter.emergency 630.00;
}

object overhead_line_conductor {
	name "wire_397_aac_treewire";
	geometric_mean_radius 0.024000;
	diameter 0.743000;
	resistance 0.283008;
	rating.summer.continuous 526.00;
	rating.summer.emergency 526.00;
	rating.winter.continuous 526.00;
	rating.winter.emergency 526.00;
}

object overhead_line_conductor {
	name "wire_2_acsr";
	geometric_mean_radius 0.004183;
	diameter 0.316000;
	resistance 1.625700;
	rating.summer.continuous 200.00;
	rating.summer.emergency 200.00;
	rating.winter.continuous 200.00;
	rating.winter.emergency 200.00;
}

object overhead_line_conductor {
	name "wire_2_wpal";
	geometric_mean_radius 0.004183;
	diameter 0.316000;
	resistance 1.690130;
	rating.summer.continuous 155.00;
	rating.summer.emergency 155.00;
	rating.winter.continuous 155.00;
	rating.winter.emergency 155.00;
}

object overhead_line_conductor {
	name "wire_6_wpal";
	geometric_mean_radius 0.003942;
	diameter 0.198000;
	resistance 3.910899;
	rating.summer.continuous 115.00;
	rating.summer.emergency 115.00;
	rating.winter.continuous 115.00;
	rating.winter.emergency 115.00;
}

object overhead_line_conductor {
	name "wire_4_tpx";
	geometric_mean_radius 0.007000;
	diameter 0.250000;
	resistance 2.449900;
	rating.summer.continuous 115.00;
	rating.summer.emergency 115.00;
	rating.winter.continuous 115.00;
	rating.winter.emergency 115.00;
}

object overhead_line_conductor {
	name "wire_1/0_tpx";
	geometric_mean_radius 0.011417;
	diameter 0.398000;
	resistance 0.184000;
	rating.summer.continuous 205.00;
	rating.summer.emergency 205.00;
	rating.winter.continuous 205.00;
	rating.winter.emergency 205.00;
}

object overhead_line_conductor {
	name "wire_4/0_tpx";
	geometric_mean_radius 0.015767;
	diameter 0.563000;
	resistance 0.485760;
	rating.summer.continuous 318.00;
	rating.summer.emergency 318.00;
	rating.winter.continuous 318.00;
	rating.winter.emergency 318.00;
}

object overhead_line_conductor {
	name "wire_2/0_acsr";
	geometric_mean_radius 0.005100;
	diameter 0.447000;
	resistance 0.853001;
	rating.summer.continuous 300.00;
	rating.summer.emergency 300.00;
	rating.winter.continuous 300.00;
	rating.winter.emergency 300.00;
}

object line_spacing {
	name "spc_3ph_h-4_acsr2_acsr2_acsr4_wpal_ABCN";
	distance_AB 3.2016;
	distance_AC 4.0000;
	distance_AN 5.5902;
	distance_AE 32.0000;
	distance_BC 2.5000;
	distance_BN 7.0000;
	distance_BE 34.0000;
	distance_CN 5.2202;
	distance_CE 32.0000;
	distance_NE 27.0000;
}

object line_spacing {
	name "spc_1ph-4_acsrxx1/0_tpx_AN";
	distance_AN 7.5664;
	distance_AE 34.5000;
	distance_NE 27.0000;
}

object line_spacing {
	name "spc_1ph-x4_wpalx4_wpal_BN";
	distance_BN 7.5664;
	distance_BE 34.5000;
	distance_NE 27.0000;
}

object line_spacing {
	name "spc_1ph-x4_wpalx1/0_tpx_BN";
	distance_BN 7.5664;
	distance_BE 34.5000;
	distance_NE 27.0000;
}

object line_spacing {
	name "spc_3ph_h-4_wpal4_wpal4_wpal1/0_tpx_ABCN";
	distance_AB 3.2016;
	distance_AC 4.0000;
	distance_AN 5.5902;
	distance_AE 32.0000;
	distance_BC 2.5000;
	distance_BN 7.0000;
	distance_BE 34.0000;
	distance_CN 5.2202;
	distance_CE 32.0000;
	distance_NE 27.0000;
}

object line_spacing {
	name "spc_3ph_h-4_acsr4_acsr4_acsr4_wpal_ABCN";
	distance_AB 3.2016;
	distance_AC 4.0000;
	distance_AN 5.5902;
	distance_AE 32.0000;
	distance_BC 2.5000;
	distance_BN 7.0000;
	distance_BE 34.0000;
	distance_CN 5.2202;
	distance_CE 32.0000;
	distance_NE 27.0000;
}

object line_spacing {
	name "spc_3ph_h-2/0_acsr2/0_acsr2/0_acsr2_acsr_ABCN";
	distance_AB 3.2016;
	distance_AC 4.0000;
	distance_AN 5.5902;
	distance_AE 32.0000;
	distance_BC 2.5000;
	distance_BN 7.0000;
	distance_BE 34.0000;
	distance_CN 5.2202;
	distance_CE 32.0000;
	distance_NE 27.0000;
}

object line_spacing {
	name "spc_1ph-x4_wpalx2_acsr_BN";
	distance_BN 7.5664;
	distance_BE 34.5000;
	distance_NE 27.0000;
}

object line_spacing {
	name "spc_1ph-xx6_wpal6_wpal_CN";
	distance_CN 7.5664;
	distance_CE 34.5000;
	distance_NE 27.0000;
}

object line_spacing {
	name "spc_1ph-x4_acsrx4_wpal_BN";
	distance_BN 7.5664;
	distance_BE 34.5000;
	distance_NE 27.0000;
}

object line_spacing {
	name "spc_1ph-xx4_wpal4_wpal_CN";
	distance_CN 7.5664;
	distance_CE 34.5000;
	distance_NE 27.0000;
}

object line_spacing {
	name "spc_1ph-2_acsrxx4_wpal_AN";
	distance_AN 7.5664;
	distance_AE 34.5000;
	distance_NE 27.0000;
}

object line_spacing {
	name "spc_1ph-x4_acsrx1/0_tpx_BN";
	distance_BN 7.5664;
	distance_BE 34.5000;
	distance_NE 27.0000;
}

object line_spacing {
	name "spc_1ph-x2_acsrx1/0_tpx_BN";
	distance_BN 7.5664;
	distance_BE 34.5000;
	distance_NE 27.0000;
}

object line_spacing {
	name "spc_1ph-x4_acsrx4_tpx_BN";
	distance_BN 7.5664;
	distance_BE 34.5000;
	distance_NE 27.0000;
}

object line_spacing {
	name "spc_3ph_h-2_acsr2_acsr4_acsr4_acsr_ABCN";
	distance_AB 3.2016;
	distance_AC 4.0000;
	distance_AN 5.5902;
	distance_AE 32.0000;
	distance_BC 2.5000;
	distance_BN 7.0000;
	distance_BE 34.0000;
	distance_CN 5.2202;
	distance_CE 32.0000;
	distance_NE 27.0000;
}

object line_spacing {
	name "spc_3ph_h-397_acsr397_acsr397_acsr2/0_wpal_ABCN";
	distance_AB 3.2016;
	distance_AC 4.0000;
	distance_AN 5.5902;
	distance_AE 32.0000;
	distance_BC 2.5000;
	distance_BN 7.0000;
	distance_BE 34.0000;
	distance_CN 5.2202;
	distance_CE 32.0000;
	distance_NE 27.0000;
}

object line_spacing {
	name "spc_1ph-x4_acsrx1/0_3w_cs_BN";
	distance_BN 7.5664;
	distance_BE 34.5000;
	distance_NE 27.0000;
}

object line_spacing {
	name "spc_1p_1/0_axnj_db_A";
	distance_AE -4.0026;
}

object line_spacing {
	name "spc_1p_1/0_axnj_db_B";
	distance_BE -4.0026;
}

object line_spacing {
	name "spc_1p_1/0_axnj_db_C";
	distance_CE -4.0026;
}

object line_spacing {
	name "spc_1ph-2_acsrxx4_acsr_AN";
	distance_AN 7.5664;
	distance_AE 34.5000;
	distance_NE 27.0000;
}

object line_spacing {
	name "spc_1ph-xx4_acsr1/0_acsr_CN";
	distance_CN 7.5664;
	distance_CE 34.5000;
	distance_NE 27.0000;
}

object line_spacing {
	name "spc_1ph-2_acsrxx2_acsr_AN";
	distance_AN 7.5664;
	distance_AE 34.5000;
	distance_NE 27.0000;
}

object line_spacing {
	name "spc_1ph-2_acsrxx2_acsr_CN";
	distance_CN 7.5664;
	distance_CE 34.5000;
	distance_NE 27.0000;
}

object line_spacing {
	name "spc_1ph-xx4_wpal4_acsr_CN";
	distance_CN 7.5664;
	distance_CE 34.5000;
	distance_NE 27.0000;
}

object line_spacing {
	name "spc_3p_1/0_axnj_db_ABC";
	distance_AB 0.5000;
	distance_AC 1.0000;
	distance_AE -4.0026;
	distance_BC 0.5000;
	distance_BE -4.0026;
	distance_CE -4.0026;
}

object line_spacing {
	name "spc_1ph-4_acsrxx4_acsr_AN";
	distance_AN 7.5664;
	distance_AE 34.5000;
	distance_NE 27.0000;
}

object line_spacing {
	name "spc_1ph-4_acsrxx4_acsr_CN";
	distance_CN 7.5664;
	distance_CE 34.5000;
	distance_NE 27.0000;
}

object line_spacing {
	name "spc_1ph-2_acsrxx4/0_tpx_AN";
	distance_AN 7.5664;
	distance_AE 34.5000;
	distance_NE 27.0000;
}

object line_spacing {
	name "spc_1ph-x4_acsrx4_dpx_BN";
	distance_BN 7.5664;
	distance_BE 34.5000;
	distance_NE 27.0000;
}

object line_spacing {
	name "spc_1ph-xx4_acsr4_tpx_CN";
	distance_CN 7.5664;
	distance_CE 34.5000;
	distance_NE 27.0000;
}

object line_spacing {
	name "spc_1ph-4_acsrxx6_wpal_AN";
	distance_AN 7.5664;
	distance_AE 34.5000;
	distance_NE 27.0000;
}

object line_spacing {
	name "spc_1ph-x4_acsrx2_wpal_BN";
	distance_BN 7.5664;
	distance_BE 34.5000;
	distance_NE 27.0000;
}

object line_spacing {
	name "spc_1ph-x4_wpalx4_acsr_BN";
	distance_BN 7.5664;
	distance_BE 34.5000;
	distance_NE 27.0000;
}

object line_spacing {
	name "spc_1ph-xx4_acsr4_acsr_AN";
	distance_AN 7.5664;
	distance_AE 34.5000;
	distance_NE 27.0000;
}

object line_spacing {
	name "spc_1ph-xx4_acsr4_acsr_BN";
	distance_BN 7.5664;
	distance_BE 34.5000;
	distance_NE 27.0000;
}

object line_spacing {
	name "spc_1ph-xx4_acsr4_acsr_CN";
	distance_CN 7.5664;
	distance_CE 34.5000;
	distance_NE 27.0000;
}

object line_spacing {
	name "spc_1ph-xx4_wpal1/0_tpx_CN";
	distance_CN 7.5664;
	distance_CE 34.5000;
	distance_NE 27.0000;
}

object line_spacing {
	name "spc_2ph_h-2_acsrx2_acsr2_acsr_ACN";
	distance_AC 4.0000;
	distance_AN 5.5902;
	distance_AE 32.0000;
	distance_CN 5.2202;
	distance_CE 32.0000;
	distance_NE 27.0000;
}

object line_spacing {
	name "spc_3ph_h-4_wpal4_wpal4_wpal4_wpal_ABCN";
	distance_AB 3.2016;
	distance_AC 4.0000;
	distance_AN 5.5902;
	distance_AE 32.0000;
	distance_BC 2.5000;
	distance_BN 7.0000;
	distance_BE 34.0000;
	distance_CN 5.2202;
	distance_CE 32.0000;
	distance_NE 27.0000;
}

object line_spacing {
	name "spc_1ph-2_acsrxx1/0_tpx_AN";
	distance_AN 7.5664;
	distance_AE 34.5000;
	distance_NE 27.0000;
}

object line_spacing {
	name "spc_1ph-x2_acsrx1/0_3w_cs_BN";
	distance_BN 7.5664;
	distance_BE 34.5000;
	distance_NE 27.0000;
}

object line_spacing {
	name "spc_3ph_h-2/0_acsr2/0_acsr2/0_acsr4_acsr_ABCN";
	distance_AB 3.2016;
	distance_AC 4.0000;
	distance_AN 5.5902;
	distance_AE 32.0000;
	distance_BC 2.5000;
	distance_BN 7.0000;
	distance_BE 34.0000;
	distance_CN 5.2202;
	distance_CE 32.0000;
	distance_NE 27.0000;
}

object line_spacing {
	name "spc_1ph-4_wpalxx2_wpal_AN";
	distance_AN 7.5664;
	distance_AE 34.5000;
	distance_NE 27.0000;
}

object line_spacing {
	name "spc_1ph-x2_acsrx4_tpx_BN";
	distance_BN 7.5664;
	distance_BE 34.5000;
	distance_NE 27.0000;
}

object line_spacing {
	name "spc_3ph-69kv_397_treewire_ABCN";
	distance_AB 6.4185;
	distance_AC 10.0066;
	distance_AN 16.0806;
	distance_AE 39.9934;
	distance_BC 6.3929;
	distance_BN 11.2716;
	distance_BE 45.0131;
	distance_CN 6.1885;
	distance_CE 50.0000;
	distance_NE 56.0039;
}

object line_spacing {
	name "spc_1ph-x2_acsrx4_acsr_BN";
	distance_BN 7.5664;
	distance_BE 34.5000;
	distance_NE 27.0000;
}

object line_spacing {
	name "spc_1ph-4_wpalxx4_acsr_AN";
	distance_AN 7.5664;
	distance_AE 34.5000;
	distance_NE 27.0000;
}

object line_spacing {
	name "spc_1ph-2_wpalxx2_wpal_AN";
	distance_AN 7.5664;
	distance_AE 34.5000;
	distance_NE 27.0000;
}

object line_spacing {
	name "spc_1ph-4_acsrxx2_acsr_AN";
	distance_AN 7.5664;
	distance_AE 34.5000;
	distance_NE 27.0000;
}

object line_spacing {
	name "spc_1ph-4_acsrxx2_acsr_CN";
	distance_CN 7.5664;
	distance_CE 34.5000;
	distance_NE 27.0000;
}

object line_spacing {
	name "spc_1ph-x4_acsrx4_acsr_AN";
	distance_AN 7.5664;
	distance_AE 34.5000;
	distance_NE 27.0000;
}

object line_spacing {
	name "spc_1ph-x4_acsrx4_acsr_BN";
	distance_BN 7.5664;
	distance_BE 34.5000;